geometry optimzed in LAMMPS
_audit_creation_date              2020-11-30 
_audit_creation_method            'lammps2cif' 
_symmetry_space_group_name_H-M    'P1' 
_symmetry_Int_Tables_number       1 
_symmetry_cell_setting            triclinic 
loop_ 
_symmetry_equiv_pos_as_xyz 
  x,y,z 
_cell_length_a                    38.32889494 
_cell_length_b                    38.14057405026986 
_cell_length_c                    48.39127588976643 
_cell_angle_alpha                 89.99134044527474 
_cell_angle_beta                  89.72122378993868 
_cell_angle_gamma                 119.80219417629061 
loop_ 
_atom_site_label 
_atom_site_type_symbol 
_atom_site_fract_x 
_atom_site_fract_y 
_atom_site_fract_z 
_atom_site_charge 
C1          C  0.29627664  0.49945326  0.71437674     0.78900
N2          N  0.29471980  0.01668612  0.73905653    -0.79400
C3          C  0.33002097  0.04664012  0.75007296     0.81300
N4          N  0.36488837  0.05803189  0.73680312    -0.79400
C5          C  0.36590855  0.04138259  0.71264013     0.81400
N6          N  0.33157233  0.01181141  0.70153500    -0.81100
C7          C  0.09185706  0.13379196  0.66830687     0.78900
N8          N  0.05764646  0.11860069  0.68368060    -0.79400
C9          C  0.02258927  0.08841334  0.67385621     0.81300
N10         N  0.02091890  0.07378992  0.64836158    -0.79400
C11         C  0.05401529  0.08783748  0.63252324     0.81400
N12         N  0.09007572  0.11833154  0.64232863    -0.81100
C13         C  0.27974305  0.47038199  0.83213880     0.78900
N14         N  0.26129631  0.45326650  0.80750900    -0.79400
C15         C  0.26638669  0.42306018  0.79609999     0.81300
N16         N  0.29029182  0.41160642  0.80865049    -0.79400
C17         C  0.30870291  0.42859801  0.83240550     0.81400
N18         N  0.30321071  0.45749022  0.84433557    -0.81100
C19         C  0.44153293  0.33541423  0.87786637     0.78900
N20         N  0.45731109  0.35183610  0.90317110    -0.79400
C21         C  0.45099425  0.38164690  0.91381184     0.81300
N22         N  0.42833984  0.39332021  0.89989203    -0.79400
C23         C  0.41231258  0.37680975  0.87545699     0.81400
N24         N  0.41911546  0.34835665  0.86427981    -0.81100
C25         C  0.44323459  0.30297556  0.49900826     0.78900
N26         N  0.46486061  0.28905647  0.51251682    -0.79400
C27         C  0.46865969  0.25827694  0.50218813     0.81300
N28         N  0.45128219  0.24109007  0.47815321    -0.79400
C29         C  0.42953043  0.25384852  0.46401675     0.81400
N30         N  0.42561022  0.28551574  0.47419461    -0.81100
C31         C  0.10649695  0.16979948  0.54491382     0.78900
N32         N  0.08371780  0.18248031  0.53151500    -0.79400
C33         C  0.07778223  0.21169451  0.54237891     0.81300
N34         N  0.09419457  0.22855203  0.56667277    -0.79400
C35         C  0.11685971  0.21680156  0.58060381     0.81400
N36         N  0.12286580  0.18671390  0.57001694    -0.81100
C37         C  0.42278864  0.29763111  0.00210062     0.78900
N38         N  0.38930992  0.28106834  0.01832551    -0.79400
C39         C  0.35456958  0.24909052  0.00952027     0.81300
N40         N  0.35245296  0.23428055  0.98397252    -0.79400
C41         C  0.38478684  0.25018204  0.96716118     0.81400
N42         N  0.42042213  0.28221084  0.97609081    -0.81100
C43         C  0.12729672  0.16452984  0.04614198     0.85500
N44         N  0.16340485  0.17652508  0.03365075    -0.79400
C45         C  0.19765423  0.20652186  0.04455578     0.81300
N46         N  0.19629359  0.22407798  0.06819097    -0.79400
C47         C  0.16131667  0.21293339  0.08122096     0.81400
N48         N  0.12615660  0.18252836  0.07046647    -0.81100
C49         C  0.46186567  0.33267237  0.38065732     0.78900
N50         N  0.46133213  0.35124296  0.40496452    -0.79400
C51         C  0.49682639  0.38200097  0.41536881     0.81300
N52         N  0.03184514  0.39270767  0.40222349    -0.79400
C53         C  0.03252125  0.37406342  0.37893521     0.81400
N54         N  0.49772135  0.34443118  0.36799345    -0.81100
C55         C  0.25660978  0.46515002  0.33338873     0.78900
N56         N  0.22235646  0.44940373  0.34868405    -0.79400
C57         C  0.18798732  0.41753671  0.33946387     0.81300
N58         N  0.18706261  0.40137458  0.31467618    -0.79400
C59         C  0.22016643  0.41628368  0.29872769     0.81400
N60         N  0.25546908  0.44876048  0.30783345    -0.81100
C61         C  0.10907647  0.13310032  0.16582733     0.78900
N62         N  0.12950626  0.11817920  0.17977170    -0.79400
C63         C  0.13244543  0.08676928  0.16968049     0.81300
N64         N  0.11565276  0.07024640  0.14540023    -0.79400
C65         C  0.09525483  0.08423853  0.13090627     0.81400
N66         N  0.09210794  0.11633211  0.14083300    -0.81100
C67         C  0.27268401  0.50052353  0.21083920     0.78900
N68         N  0.25021133  0.01354402  0.19701907    -0.79400
C69         C  0.24477969  0.04329057  0.20739867     0.81300
N70         N  0.26115774  0.06052299  0.23163023    -0.79400
C71         C  0.28341055  0.04866503  0.24596182     0.81400
N72         N  0.28895338  0.01797783  0.23579940    -0.81100
C73         C  0.04002935  0.25291794  0.83336683     0.78900
N74         N  0.05397977  0.28834465  0.84709527    -0.79400
C75         C  0.08367579  0.32298762  0.83621976     0.81300
N76         N  0.10019742  0.32294785  0.81177518    -0.79400
C77         C  0.08785890  0.28846942  0.79770423     0.81400
N78         N  0.05700029  0.25283774  0.80819934    -0.81100
C79         C  0.17430141  0.05113997  0.87840251     0.78900
N80         N  0.15758848  0.05000865  0.90383752    -0.79400
C81         C  0.12840744  0.01357529  0.91448850     0.81300
N82         N  0.11849992  0.47833262  0.90029828    -0.79400
C83         C  0.13609831  0.47956839  0.87605294     0.81400
N84         N  0.16189002  0.01601534  0.86457086    -0.81100
C85         C  0.37472396  0.40174809  0.66694161     0.78900
N86         N  0.39203304  0.41799280  0.64177280    -0.79400
C87         C  0.42199149  0.41164265  0.63147643     0.81300
N88         N  0.43298324  0.38844862  0.64561621    -0.79400
C89         C  0.41581983  0.37219275  0.66999724     0.81400
N90         N  0.38719305  0.37902352  0.68079796    -0.81100
C91         C  0.00906427  0.23867386  0.71313713     0.78900
N92         N  0.99448903  0.25925459  0.69886720    -0.79400
C93         C  0.46379267  0.26312423  0.70919504     0.81300
N94         N  0.44746493  0.24675227  0.73376124    -0.79400
C95         C  0.46106167  0.22610351  0.74844747     0.81400
N96         N  0.49260441  0.22221843  0.73834142    -0.81100
C97         C  0.20588421  0.08784207  0.49873213     0.78900
N98         N  0.22056941  0.12297147  0.51296248    -0.79400
C99         C  0.25137856  0.15747751  0.50272638     0.81300
N100        N  0.26707894  0.15757012  0.47784109    -0.79400
C101        C  0.25336422  0.12341513  0.46307872     0.81400
N102        N  0.22223261  0.08795884  0.47334107    -0.81100
C103        C  0.34111400  0.38476744  0.54465091     0.78900
N104        N  0.32788535  0.34957430  0.53057141    -0.79400
C105        C  0.29740060  0.31458591  0.54065940     0.81300
N106        N  0.28057238  0.31410574  0.56511931    -0.79400
C107        C  0.29284664  0.34809659  0.57969290     0.81400
N108        N  0.32368669  0.38402637  0.56971070    -0.81100
C109        C  0.20950987  0.06774048  0.00248507     0.78900
N110        N  0.22577180  0.08285377  0.97687461    -0.79400
C111        C  0.25800310  0.07967415  0.96738884     0.81300
N112        N  0.27292143  0.06118651  0.98312501    -0.79400
C113        C  0.25705269  0.04616424  0.00810173     0.81400
N114        N  0.22531598  0.04906366  0.01763986    -0.81100
C115        C  0.34246210  0.40330978  0.04533197     0.78900
N116        N  0.33032579  0.42712560  0.03265138    -0.79400
C117        C  0.30064862  0.43202999  0.04363039     0.81300
N118        N  0.28285367  0.41361275  0.06732395    -0.79400
C119        C  0.29401631  0.38992113  0.08058650     0.81400
N120        N  0.32455809  0.38483001  0.06991999    -0.81100
C121        C  0.17443315  0.06990443  0.37912764     0.78900
N122        N  0.15768966  0.08707387  0.36348588    -0.79400
C123        C  0.12606606  0.09004059  0.37293548     0.81300
N124        N  0.11157462  0.07704555  0.39850826    -0.79400
C125        C  0.12729680  0.05977629  0.41466519     0.81400
N126        N  0.15918930  0.05610335  0.40514280    -0.81100
C127        C  0.04021899  0.23074120  0.33278624     0.78900
N128        N  0.05761768  0.24739380  0.30768287    -0.79400
C129        C  0.08837248  0.24215834  0.29759033     0.81300
N130        N  0.10057015  0.22036414  0.31212353    -0.79400
C131        C  0.08382573  0.20410433  0.33661848     0.81400
N132        N  0.05341435  0.20869426  0.34678920    -0.81100
C133        C  0.00588172  0.21695248  0.21086837     0.78900
N134        N  0.48963518  0.21550519  0.23635029    -0.79400
C135        C  0.45760934  0.17979610  0.24556856     0.81300
N136        N  0.44271289  0.14685386  0.22944766    -0.79400
C137        C  0.45822375  0.14841454  0.20421480     0.81400
N138        N  0.48992407  0.18320954  0.19501953    -0.81100
C139        C  0.37075241  0.42053418  0.16463207     0.78900
N140        N  0.38802553  0.42005054  0.13977502    -0.79400
C141        C  0.41856228  0.45550780  0.12908924     0.81300
N142        N  0.43070082  0.49023964  0.14282383    -0.79400
C143        C  0.41400805  0.49091932  0.16709612     0.81400
N144        N  0.38381785  0.45633726  0.17786835    -0.81100
C145        C  0.27269994  0.25137858  0.33287358     0.78900
N146        N  0.29371395  0.28701431  0.34646852    -0.79400
C147        C  0.29812692  0.32164860  0.33556603     0.81300
N148        N  0.28197492  0.32102111  0.31096315    -0.79400
C149        C  0.26139353  0.28659625  0.29680837     0.81400
N150        N  0.25678927  0.25116390  0.30745925    -0.81100
C151        C  0.43483377  0.04742461  0.37942928     0.78900
N152        N  0.45321996  0.04872854  0.40406737    -0.79400
C153        C  0.44999653  0.01380127  0.41469445     0.81300
N154        N  0.42849995  0.47883730  0.40114526    -0.79400
C155        C  0.41009236  0.47720224  0.37727979     0.81400
N156        N  0.41309960  0.01138620  0.36648697    -0.81100
C157        C  0.26809554  0.21518900  0.71367821     0.78900
N158        N  0.28678703  0.21613848  0.73815037    -0.79400
C159        C  0.28121255  0.18056212  0.74947671     0.81300
N160        N  0.25672737  0.14534715  0.73686068    -0.79400
C161        C  0.23821579  0.14441365  0.71321401     0.81400
N162        N  0.24371816  0.17898219  0.70165530    -0.81100
C163        C  0.10560790  0.41954427  0.66840554     0.78900
N164        N  0.09066264  0.42104926  0.64290530    -0.79400
C165        C  0.09484152  0.45699769  0.63336830     0.81300
N166        N  0.11422201  0.49045201  0.64888613    -0.79400
C167        C  0.12897534  0.48905516  0.67372525     0.81400
N168        N  0.12501801  0.45402472  0.68333691    -0.81100
C169        C  0.42094143  0.06379486  0.49805961     0.78900
N170        N  0.38557825  0.04191057  0.51177336    -0.79400
C171        C  0.35106357  0.03754094  0.50135543     0.81300
N172        N  0.35119985  0.05405458  0.47685725    -0.79400
C173        C  0.38553616  0.07594542  0.46261619     0.81400
N174        N  0.42106496  0.08091432  0.47300585    -0.81100
C175        C  0.12592834  0.40088786  0.54326439     0.78900
N176        N  0.12684266  0.38563514  0.56884447    -0.79400
C177        C  0.16228199  0.38946128  0.57852359     0.81300
N178        N  0.19573633  0.40840427  0.56296110    -0.79400
C179        C  0.19506471  0.42315159  0.53788190     0.81400
N180        N  0.16051443  0.41996472  0.52823440    -0.81100
C181        C  0.29420174  0.23577525  0.20983901     0.78900
N182        N  0.32961979  0.25813232  0.19616778    -0.79400
C183        C  0.36431783  0.26267982  0.20656108     0.81300
N184        N  0.36430984  0.24602451  0.23099993    -0.79400
C185        C  0.33008632  0.22413502  0.24532287     0.81400
N186        N  0.29445948  0.21896521  0.23494093    -0.81100
C187        C  0.08871991  0.39774273  0.16541464     0.78900
N188        N  0.05468851  0.38037772  0.18096938    -0.79400
C189        C  0.02055018  0.37845862  0.17178258     0.81300
N190        N  0.01967216  0.39271009  0.14658618    -0.79400
C191        C  0.05266312  0.41002286  0.13048572     0.81400
N192        N  0.08777990  0.41263220  0.13970274    -0.81100
C193        C  0.43975825  0.08517856  0.00114613     0.78900
N194        N  0.45817619  0.11919968  0.01664156    -0.79400
C195        C  0.46125261  0.15414791  0.00764057     0.81300
N196        N  0.44700828  0.15592933  0.98266453    -0.79400
C197        C  0.42874734  0.12294521  0.96660921     0.81400
N198        N  0.42511170  0.08706041  0.97565854    -0.81100
C199        C  0.10211669  0.38042629  0.04618278     0.78900
N200        N  0.07990060  0.34471446  0.03306787    -0.79400
C201        C  0.07544685  0.31022621  0.04396412     0.81300
N202        N  0.09231094  0.31073352  0.06827008    -0.79400
C203        C  0.11467210  0.34551478  0.08187113     0.81400
N204        N  0.11957770  0.38102400  0.07106869    -0.81100
C205        C  0.25692103  0.23306318  0.83221049     0.78900
N206        N  0.22144444  0.21118354  0.84575069    -0.79400
C207        C  0.18688334  0.20542003  0.83454918     0.81300
N208        N  0.18703050  0.22150713  0.80991673    -0.79400
C209        C  0.22158083  0.24413199  0.79604926     0.81400
N210        N  0.25716861  0.24973108  0.80688411    -0.81100
C211        C  0.45922459  0.06882303  0.87854316     0.78900
N212        N  0.49389215  0.09073888  0.86409855    -0.79400
C213        C  0.03120803  0.10131765  0.87555963     0.81300
N214        N  0.03241510  0.08590088  0.90024267    -0.79400
C215        C  0.49735039  0.06061664  0.91414355     0.81400
N216        N  0.46091141  0.05373170  0.90403083    -0.81100
O217        O  0.36840532  0.08795870  0.78717371    -0.81500
O218        O  0.23350188  0.11491912  0.88580551    -0.83000
O219        O  0.27388792  0.02975491  0.82650690    -0.80000
O220        O  0.28428284  0.14181760  0.78672051    -0.78400
O221        O  0.33165104  0.20900372  0.78402709    -0.80200
O222        O  0.30264692  0.02182664  0.86569609    -0.81100
O223        O  0.22654477  0.08067398  0.84542340    -0.82500
O224        O  0.30164126  0.06920728  0.78441498    -0.82800
Eu225      Eu  0.29372509  0.10213835  0.82474735     2.39200
O226        O  0.30835081  0.16553819  0.84077495    -0.90300
O227        O  0.34436794  0.08903578  0.84090778    -0.93900
C228        C  0.33300373  0.06853667  0.77578948     1.00800
C229        C  0.21281599  0.08593075  0.86871872     1.00600
C230        C  0.28361505  0.00891593  0.84248303     1.00600
C231        C  0.30006890  0.17749065  0.77526468     0.98400
H232        H  0.27073714  0.07759430  0.88092543     0.28200
O233        O  0.29473780  0.10042447  0.87357431    -1.02700
H234        H  0.35802220  0.15170612  0.78887676     0.28200
O235        O  0.35795336  0.15175619  0.80881070    -1.05200
O236        O  0.34413573  0.21122228  0.92924139    -0.82400
O237        O  0.47972838  0.18924027  0.82624289    -0.82000
O238        O  0.29772230  0.07921621  0.92929709    -0.80400
O239        O  0.32124668  0.23795795  0.82636588    -0.83700
O240        O  0.42064807  0.22524275  0.78602726    -0.81600
O241        O  0.39520772  0.06459235  0.88624121    -0.80200
O242        O  0.42943361  0.16380030  0.92891399    -0.81800
O243        O  0.44460383  0.27531483  0.88563951    -0.83700
O244        O  0.38356991  0.09589873  0.92991336    -0.80400
O245        O  0.41812055  0.28298206  0.84520786    -0.83100
O246        O  0.27532635  0.12497920  0.93013384    -0.78800
O247        O  0.42960050  0.09175892  0.84582319    -0.78900
O248        O  0.44046843  0.17757249  0.78424204    -0.78500
O249        O  0.28397432  0.20776025  0.86529257    -0.82000
O250        O  0.41176016  0.23287565  0.92969087    -0.81400
O251        O  0.48635669  0.22616564  0.86515420    -0.79800
Eu252      Eu  0.30637619  0.16458895  0.88928635     2.39800
Eu253      Eu  0.40768718  0.13720811  0.82479955     2.39600
Eu254      Eu  0.34463741  0.08751410  0.88933312     2.38400
Eu255      Eu  0.37207859  0.21615402  0.82440977     2.39900
Eu256      Eu  0.42068545  0.20218198  0.88909804     2.39800
O257        O  0.42021205  0.20102988  0.84068049    -0.94200
O258        O  0.35703343  0.15137619  0.90406291    -0.93100
C259        C  0.38007562  0.23096185  0.94001855     1.01000
C260        C  0.49996698  0.21987951  0.84214642     0.99700
C261        C  0.27755915  0.09515168  0.94030637     0.99100
C262        C  0.29069603  0.22797782  0.84237488     1.01100
C263        C  0.44027657  0.20894544  0.77489191     1.00000
C264        C  0.42436087  0.07279937  0.86913279     0.98900
C265        C  0.41340779  0.12766875  0.93986970     0.98900
C266        C  0.43697074  0.29644545  0.86841238     1.01600
H267        H  0.43140878  0.13866388  0.88096589     0.28900
O268        O  0.40860292  0.13959833  0.87355838    -1.06300
H269        H  0.37027795  0.23862144  0.88065582     0.31000
O270        O  0.36894822  0.21452828  0.87331260    -1.08900
O271        O  0.45254302  0.42336880  0.95080873    -0.81500
O272        O  0.10679802  0.44456965  0.05228328    -0.83000
O273        O  0.08495551  0.47177413  0.95064145    -0.80000
O274        O  0.48520660  0.35885568  0.99334530    -0.78400
O275        O  0.45145163  0.35137168  0.03408129    -0.80200
O276        O  0.10833971  0.04110351  0.95014955    -0.81100
O277        O  0.07820623  0.40829284  0.01297202    -0.82500
O278        O  0.49765046  0.40034467  0.94964295    -0.82800
Eu279      Eu  0.03621407  0.43185259  0.98961484     2.39200
O280        O  0.03646117  0.43307776  0.03806276    -0.90300
O281        O  0.02444356  0.48357515  0.97425316    -0.93900
C282        C  0.46777114  0.40244737  0.93998209     1.00800
C283        C  0.09732179  0.41435465  0.03610419     1.00600
C284        C  0.10587537  0.50797189  0.93983582     1.00600
C285        C  0.45654766  0.33767485  0.01076189     0.98400
H286        H  0.11033495  0.49514693  0.99831996     0.28200
O287        O  0.08637655  0.49422281  0.00537842    -1.02700
H288        H  0.44999553  0.39715400  0.99852582     0.28200
O289        O  0.47284902  0.42113912  0.00568539    -1.05200
O290        O  0.09502692  0.04485897  0.09307541    -0.82400
O291        O  0.43833428  0.02234991  0.99268642    -0.82000
O292        O  0.14852372  0.06938041  0.99420753    -0.80400
O293        O  0.51277178  0.41005428  0.09305655    -0.83700
O294        O  0.40125418  0.39754500  0.05158522    -0.81600
O295        O  0.03821106  0.05930988  0.95121391    -0.80200
O296        O  0.06256917  0.10574155  0.05228380    -0.81800
O297        O  0.45952316  0.99407470  0.09181883    -0.83700
O298        O  0.09890865  0.11328868  0.01280775    -0.80400
O299        O  0.44028256  0.42701251  0.09443689    -0.83100
O300        O  0.15506994  0.04142508  0.03434998    -0.78800
O301        O  0.47014251  0.01244223  0.94967622    -0.78900
O302        O  0.39522902  0.42848444  0.01272345    -0.78500
O303        O  0.07980461  0.45708738  0.09430015    -0.82000
O304        O  0.04747981  0.06462404  0.09525149    -0.81400
O305        O  0.46518965  0.05666377  0.03295295    -0.79800
Eu306      Eu  0.08715355  0.49695336  0.05399891     2.39800
Eu307      Eu  0.46099536  0.47168420  0.98962078     2.39600
Eu308      Eu  0.07552497  0.04750310  0.99010375     2.38400
Eu309      Eu  0.47350167  0.41899418  0.05439413     2.39900
Eu310      Eu  0.00914904  0.03366097  0.05413258     2.39800
O311        O  0.46103179  0.47046803  0.03812446    -0.94200
O312        O  0.07310093  0.04647287  0.03852469    -0.93100
C313        C  0.07851171  0.06409127  0.10447456     1.01000
C314        C  0.44615145  0.05134672  0.00982110     0.99700
C315        C  0.16928736  0.06111006  0.01135044     0.99100
C316        C  0.04850817  0.42599276  0.10380824     1.01100
C317        C  0.38124384  0.40797254  0.03544676     1.00000
C318        C  0.00245759  0.04419455  0.94027182     0.98900
C319        C  0.09291980  0.12634141  0.03604165     0.98900
C320        C  0.44006652  0.45864624  0.10315171     1.01600
H321        H  0.01213560  0.05833628  0.99843082     0.28900
O322        O  0.01300081  0.03529674  0.00559698    -1.06300
H323        H  0.02274459  0.48289128  0.08964192     0.31000
O324        O  0.02302128  0.48295956  0.06974804    -1.08900
O325        O  0.42846876  0.21323255  0.42619072    -0.81500
O326        O  0.26945041  0.18788704  0.32605111    -0.83000
O327        O  0.39645019  0.27389369  0.38641589    -0.80000
O328        O  0.29362410  0.16271649  0.42542548    -0.78400
O329        O  0.27394228  0.09525297  0.42750883    -0.80200
O330        O  0.43290686  0.28090787  0.34711681    -0.81100
O331        O  0.29777910  0.22379934  0.36561847    -0.82500
O332        O  0.38096675  0.23304195  0.42847746    -0.82800
Eu333      Eu  0.34258598  0.20171824  0.38721975     2.39200
O334        O  0.29439215  0.13814444  0.37116167    -0.90300
O335        O  0.40642163  0.21441170  0.37135235    -0.93900
C336        C  0.41214470  0.23272740  0.43767954     1.00800
C337        C  0.27799745  0.21751593  0.34271342     1.00600
C338        C  0.42713424  0.29430399  0.37040091     1.00600
C339        C  0.27407223  0.12689262  0.43666147     0.98400
H340        H  0.34436727  0.22565719  0.33085227     0.28200
O341        O  0.34543209  0.20280911  0.33836118    -1.02700
H342        H  0.35578979  0.15066343  0.42266600     0.28200
O343        O  0.35600980  0.15081619  0.40274396    -1.05200
O344        O  0.28456984  0.09030125  0.28335109    -0.82400
O345        O  0.43893081  0.11157115  0.38542040    -0.82000
O346        O  0.36936646  0.22326137  0.28318042    -0.80400
O347        O  0.23439538  0.06616415  0.38578379    -0.83700
O348        O  0.34641495  0.07750404  0.42524746    -0.81600
O349        O  0.48075656  0.23567092  0.32531378    -0.80200
O350        O  0.41673484  0.13905297  0.28304774    -0.81800
O351        O  0.31842582  0.02633417  0.32517900    -0.83700
O352        O  0.43960935  0.20730888  0.28242939    -0.80400
O353        O  0.28400366  0.01887235  0.36560056    -0.83100
O354        O  0.30176419  0.17741041  0.28172895    -0.78800
O355        O  0.48759339  0.20835388  0.36569745    -0.78900
O356        O  0.41337790  0.12513360  0.42749109    -0.78500
O357        O  0.22805899  0.09678216  0.34691921    -0.82000
O358        O  0.33057729  0.06847122  0.28179165    -0.81400
O359        O  0.40997686  0.07496161  0.34628046    -0.79800
Eu360      Eu  0.29343121  0.13857517  0.32268856     2.39800
Eu361      Eu  0.42028659  0.16505004  0.38725406     2.39600
Eu362      Eu  0.40809209  0.21503328  0.32289387     2.38400
Eu363      Eu  0.30638412  0.08639405  0.38718660     2.39900
Eu364      Eu  0.36888177  0.09960623  0.32248648     2.39800
O365        O  0.36953311  0.10130123  0.37100111    -0.94200
O366        O  0.35708448  0.15146248  0.30772246    -0.93100
C367        C  0.30027464  0.06992143  0.27222918     1.01000
C368        C  0.42936086  0.08115453  0.36933590     0.99700
C369        C  0.33369794  0.20750789  0.27195513     0.99100
C370        C  0.21418936  0.07643169  0.36972671     1.01100
C371        C  0.38199662  0.09361292  0.43650339     1.00000
C372        C  0.50133347  0.22689452  0.34225129     0.98900
C373        C  0.43741216  0.17529743  0.27231986     0.98900
C374        C  0.28964681  0.00504975  0.34241619     1.01600
H375        H  0.44215138  0.16221427  0.33115283     0.28900
O376        O  0.41861171  0.16189912  0.33854899    -1.06300
H377        H  0.28219425  0.06414483  0.33114058     0.31000
O378        O  0.30507430  0.08787949  0.33841053    -1.08900
O379        O  0.23097095  0.44092099  0.71998649    -0.81500
O380        O  0.25125739  0.30787196  0.61690306    -0.83000
O381        O  0.31468866  0.40505167  0.65900529    -0.80000
O382        O  0.20230163  0.39026015  0.61654286    -0.78400
O383        O  0.13468623  0.34438332  0.61582357    -0.80200
O384        O  0.32239971  0.37943469  0.69989289    -0.81100
O385        O  0.27319191  0.37588639  0.61554838    -0.82500
O386        O  0.26727339  0.44829450  0.68052786    -0.82800
Eu387      Eu  0.24167317  0.38271928  0.65622760     2.39200
O388        O  0.19080597  0.31893319  0.64152232    -0.90300
O389        O  0.23969923  0.38139124  0.70457608    -0.93900
C390        C  0.26165424  0.46133947  0.70396674     1.00800
C391        C  0.27163263  0.34395636  0.60589522     1.00600
C392        C  0.33583981  0.39767078  0.67634586     1.00600
C393        C  0.16642399  0.37417801  0.60558764     0.98400
H394        H  0.27778037  0.33145916  0.66451541     0.28200
O395        O  0.25388264  0.33047614  0.67178846    -1.02700
H396        H  0.17816904  0.39345435  0.66503025     0.28200
O397        O  0.17931976  0.37067711  0.67243313    -1.05200
O398        O  0.15454395  0.19446040  0.66011172    -0.82400
O399        O  0.12829420  0.32809482  0.75997545    -0.82000
O400        O  0.27476040  0.28059456  0.71883176    -0.80400
O401        O  0.11860529  0.25833915  0.61790909    -0.83700
O402        O  0.10401171  0.35660645  0.66029343    -0.81600
O403        O  0.26351316  0.38193714  0.75863919    -0.80200
O404        O  0.18234599  0.24582806  0.75881987    -0.81800
O405        O  0.06919663  0.23477033  0.71972554    -0.83700
O406        O  0.24918628  0.29373439  0.76090606    -0.80400
O407        O  0.06177725  0.26368637  0.68034639    -0.83100
O408        O  0.24567167  0.24389497  0.67975922    -0.78800
O409        O  0.21638635  0.40215624  0.76159638    -0.78900
O410        O  0.13161972  0.39149374  0.70026694    -0.78500
O411        O  0.16429550  0.23608883  0.61615946    -0.82000
O412        O  0.12015152  0.18712502  0.70055480    -0.81400
O413        O  0.10924795  0.26081857  0.76224499    -0.79800
Eu414      Eu  0.20379341  0.26788555  0.65631427     2.39800
Eu415      Eu  0.17650850  0.36903253  0.72134175     2.39600
Eu416      Eu  0.25527584  0.33341989  0.72051789     2.38400
Eu417      Eu  0.12740999  0.30642963  0.65701250     2.39900
Eu418      Eu  0.14151300  0.25445747  0.72124438     2.39800
O419        O  0.12822456  0.30553097  0.70550988    -0.94200
O420        O  0.20460009  0.26961914  0.70469959    -0.93100
C421        C  0.12571068  0.17339759  0.67736574     1.01000
C422        C  0.10902448  0.29223601  0.77137623     0.99700
C423        C  0.26467113  0.24987401  0.70296931     0.99100
C424        C  0.13403412  0.23779939  0.60676299     1.01100
C425        C  0.11200798  0.38575682  0.67731827     1.00000
C426        C  0.24778248  0.40179346  0.77024658     0.98900
C427        C  0.21800240  0.26199680  0.76995571     0.98900
C428        C  0.04843456  0.24419112  0.70347521     1.01600
H429        H  0.19131863  0.31883838  0.75664425     0.28900
O430        O  0.19115431  0.31891422  0.73669342    -1.06300
H431        H  0.11731404  0.23189654  0.66541467     0.31000
O432        O  0.14000333  0.25600880  0.67252111    -1.08900
O433        O  0.19964096  0.25367468  0.11840278    -0.81500
O434        O  0.06684480  0.27934702  0.21900164    -0.83000
O435        O  0.10639174  0.19395433  0.15893942    -0.80000
O436        O  0.11672828  0.30662629  0.11925010    -0.78400
O437        O  0.16438870  0.37381440  0.11638810    -0.80200
O438        O  0.13476408  0.18602041  0.19826423    -0.81100
O439        O  0.05928742  0.24507808  0.17855419    -0.82500
O440        O  0.13271472  0.23437154  0.11600493    -0.82800
Eu441      Eu  0.12606849  0.26649640  0.15696694     2.39200
O442        O  0.14149704  0.33003464  0.17313010    -0.90300
O443        O  0.17689951  0.25278895  0.17212916    -0.93900
C444        C  0.16420741  0.23432481  0.10704933     1.00800
C445        C  0.04571075  0.25058325  0.20184362     1.00600
C446        C  0.11530976  0.17282628  0.17528863     1.00600
C447        C  0.13274803  0.34231031  0.10778142     0.98400
H448        H  0.10406598  0.24235664  0.21293124     0.28200
O449        O  0.12794010  0.26523007  0.20556694    -1.02700
H450        H  0.18989401  0.31648497  0.12097098     0.28200
O451        O  0.19008159  0.31647949  0.14088136    -1.05200
O452        O  0.17969028  0.37638462  0.26109204    -0.82400
O453        O  0.31141801  0.35664785  0.15795732    -0.82000
O454        O  0.13007307  0.24366689  0.26020245    -0.80400
O455        O  0.15195244  0.40041305  0.15821614    -0.83700
O456        O  0.25312985  0.38826852  0.11805474    -0.81600
O457        O  0.22988063  0.23098024  0.21698866    -0.80200
O458        O  0.26001944  0.32599557  0.25942661    -0.81800
O459        O  0.27655059  0.44039246  0.21808730    -0.83700
O460        O  0.21574744  0.25773229  0.26061816    -0.80400
O461        O  0.24996873  0.44820614  0.17778323    -0.83100
O462        O  0.10841609  0.28998375  0.26196446    -0.78800
O463        O  0.26469935  0.25871833  0.17682768    -0.78900
O464        O  0.27234467  0.34017574  0.11535173    -0.78500
O465        O  0.11574788  0.37108907  0.19764476    -0.82000
O466        O  0.24734836  0.39837259  0.26156348    -0.81400
O467        O  0.31979229  0.39069484  0.19855138    -0.79800
Eu468      Eu  0.13984604  0.32932288  0.22154187     2.39800
Eu469      Eu  0.24008237  0.30206321  0.15622238     2.39600
Eu470      Eu  0.17776986  0.25208985  0.22058023     2.38400
Eu471      Eu  0.20473302  0.38103220  0.15643857     2.39900
Eu472      Eu  0.25343323  0.36704493  0.22061955     2.39800
O473        O  0.25303272  0.36606320  0.17217290    -0.94200
O474        O  0.19032945  0.31579672  0.23619092    -0.93100
C475        C  0.21569550  0.39647017  0.27184498     1.01000
C476        C  0.33243061  0.38597509  0.17471556     0.99700
C477        C  0.10973505  0.25935636  0.27137862     0.99100
C478        C  0.12183434  0.39084921  0.17459988     1.01100
C479        C  0.27248082  0.37186489  0.10651680     1.00000
C480        C  0.25948418  0.23980459  0.20012616     0.98900
C481        C  0.24508424  0.28996044  0.27035633     0.98900
C482        C  0.26862967  0.46162465  0.20112353     1.01600
H483        H  0.26435317  0.30425791  0.21191647     0.28900
O484        O  0.24122482  0.30468732  0.20473291    -1.06300
H485        H  0.20262403  0.40339649  0.21266576     0.31000
O486        O  0.20175709  0.37958180  0.20524487    -1.08900
O487        O  0.51247201  0.04718673  0.59495533    -0.81500
O488        O  0.14661232  0.02387870  0.49234182    -0.83000
O489        O  0.09465210  0.99764236  0.59589301    -0.80000
O490        O  0.11081629  0.11006101  0.55208751    -0.78400
O491        O  0.08397055  0.11782292  0.51184584    -0.80200
O492        O  0.05048665  0.42955870  0.59608774    -0.81100
O493        O  0.15345830  0.05992169  0.53176345    -0.82500
O494        O  0.08097029  0.06940691  0.59554481    -0.82800
Eu495      Eu  0.08786788  0.03678686  0.55545174     2.39200
O496        O  0.08707985  0.03567563  0.50701983    -0.90300
O497        O  0.02436051  0.48557551  0.57033004    -0.93900
C498        C  0.04930926  0.06767448  0.60569891     1.00800
C499        C  0.16695476  0.05398337  0.50860583     1.00600
C500        C  0.07966228  0.46154404  0.60640005     1.00600
C501        C  0.10270060  0.13117732  0.53511772     0.98400
H502        H  0.09883484  0.47323807  0.54704421     0.28200
O503        O  0.07606679  0.47426541  0.53962853    -1.02700
H504        H  0.03691846  0.07305878  0.54702987     0.28200
O505        O  0.03611596  0.04923788  0.53966670    -1.05200
O506        O  0.03593826  0.42358823  0.45253501    -0.82400
O507        O  0.40074948  0.44840255  0.55244758    -0.82000
O508        O  0.06307874  0.39914770  0.55140151    -0.80400
O509        O  0.08749526  0.06038808  0.45230119    -0.83700
O510        O  0.48601477  0.07022237  0.49221491    -0.81600
O511        O  0.46391989  0.41328005  0.59433292    -0.80200
O512        O  0.43935231  0.36341290  0.49266270    -0.81800
O513        O  0.45220788  0.47580012  0.45247386    -0.83700
O514        O  0.46925675  0.35624446  0.53147217    -0.80400
O515        O  0.49909515  0.04283383  0.44985768    -0.83100
O516        O  0.09818899  0.42736526  0.51141188    -0.78800
O517        O  0.44218030  0.45955897  0.59589328    -0.78900
O518        O  0.44894836  0.03960431  0.53107796    -0.78500
O519        O  0.10802516  0.01320757  0.45115539    -0.82000
O520        O  0.46879750  0.40413333  0.45022394    -0.81400
O521        O  0.39371716  0.41455175  0.51186920    -0.79800
Eu522      Eu  0.07484279  0.47188935  0.49087939     2.39800
Eu523      Eu  0.47365190  0.49901722  0.55547094     2.39600
Eu524      Eu  0.01227798  0.42186772  0.55519546     2.38400
Eu525      Eu  0.03885183  0.05080357  0.49080432     2.39900
Eu526      Eu  0.46086011  0.43629389  0.49089423     2.39800
O527        O  0.47529234  0.49969057  0.50696241    -0.94200
O528        O  0.01165838  0.42273938  0.50671929    -0.93100
C529        C  0.00044499  0.40411028  0.44122608     1.01000
C530        C  0.38001003  0.41949684  0.53526419     0.99700
C531        C  0.09240152  0.40753465  0.53437638     0.99100
C532        C  0.10736301  0.04412881  0.44147858     1.01100
C533        C  0.45514665  0.05941778  0.50808405     1.00000
C534        C  0.44352647  0.42896180  0.60537846     0.98900
C535        C  0.44905823  0.34262292  0.50871634     0.98900
C536        C  0.46823555  0.51132553  0.44080432     1.01600
H537        H  0.43856499  0.41218889  0.54683688     0.28900
O538        O  0.46248597  0.43512477  0.53958820    -1.06300
H539        H  0.02519379  0.48634412  0.45530865     0.31000
O540        O  0.02505815  0.48632745  0.47517965    -1.08900
C541        C  0.14857593  0.17784627  0.84677283    -0.07500
C542        C  0.12955922  0.19418700  0.86253034    -0.18600
C543        C  0.08977419  0.17013372  0.87077498     0.09700
C544        C  0.06887032  0.12928930  0.86260004    -0.07400
C545        C  0.08779691  0.11310190  0.84654959    -0.18600
C546        C  0.12774872  0.13702312  0.83863865     0.09800
S547        S  0.06809802  0.19275183  0.89266250    -0.33600
S548        S  0.15020773  0.11409187  0.81782416    -0.33600
H549        H  0.18920346  0.13691445  0.82848030     0.27800
H550        H  0.02803632  0.16783993  0.88453055     0.27800
H551        H  0.14561058  0.22592239  0.86804055     0.18400
H552        H  0.07182377  0.08135526  0.84107661     0.18400
C553        C  0.04765722  0.27147598  0.03230375    -0.07500
C554        C  0.00737840  0.26152662  0.03008741    -0.18600
C555        C  0.97790483  0.22206089  0.02444159     0.09700
C556        C  0.48813479  0.19200574  0.02102963    -0.07400
C557        C  0.52822738  0.20157058  0.02390763    -0.18600
C558        C  0.05894750  0.24183788  0.02875932     0.09800
S559        S  0.92641566  0.21090931  0.02269336    -0.33600
S560        S  0.11052228  0.25289907  0.03026032    -0.33600
H561        H  0.12778737  0.29340589  0.02163073     0.27800
H562        H  0.40823376  0.17013815  0.03029151     0.27800
H563        H  0.99868482  0.28417200  0.03390292     0.18400
H564        H  0.53676072  0.17877141  0.02026985     0.18400
C565        C  0.40303607  0.29112084  0.19469676    -0.07500
C566        C  0.41212277  0.33127222  0.19142345    -0.18600
C567        C  0.45148153  0.36162536  0.18633486     0.09700
C568        C  0.48212361  0.35142193  0.18476953    -0.07400
C569        C  0.47300676  0.31134993  0.18844092    -0.18600
C570        C  0.43359715  0.28095314  0.19265479     0.09800
S571        S  0.46080959  0.41261075  0.18201336    -0.33600
S572        S  0.42374098  0.22953096  0.19383338    -0.33600
H573        H  0.38381761  0.21167725  0.18454639     0.27800
H574        H  0.50139430  0.43190348  0.18998952     0.27800
H575        H  0.38876393  0.33921580  0.19386570     0.18400
H576        H  0.49620644  0.30318626  0.18590155     0.18400
C577        C  0.31250813  0.00990811  0.51368118    -0.07500
C578        C  0.30296194  0.96970844  0.51732303    -0.18600
C579        C  0.26426966  0.44036447  0.52347843     0.09700
C580        C  0.23357717  0.45049509  0.52511601    -0.07400
C581        C  0.24263338  0.49050176  0.52099853    -0.18600
C582        C  0.28193080  0.52076237  0.51581419     0.09800
S583        S  0.25511456  0.38951277  0.52793455    -0.33600
S584        S  0.29161891  0.57205208  0.51287202    -0.33600
H585        H  0.33357899  0.09030065  0.52269581     0.27800
H586        H  0.21438146  0.36987316  0.52035961     0.27800
H587        H  0.32584037  0.96118128  0.51443696     0.18400
H588        H  0.21943611  0.49865960  0.52351474     0.18400
C589        C  0.20918444  0.10545077  0.70231429    -0.07500
C590        C  0.22363353  0.08159193  0.69069057    -0.18600
C591        C  0.19701525  0.04210841  0.68265393     0.09700
C592        C  0.15550954  0.02650495  0.68693629    -0.07400
C593        C  0.14102677  0.05027290  0.69872511    -0.18600
C594        C  0.16777037  0.08972960  0.70696576     0.09800
S595        S  0.21588306  0.01263739  0.66553426    -0.33600
S596        S  0.14930906  0.11913624  0.72452272    -0.33600
H597        H  0.10853721  0.08893952  0.72513901     0.27800
H598        H  0.25666919  0.04277643  0.66512318     0.27800
H599        H  0.25572757  0.09403098  0.68797833     0.18400
H600        H  0.10891457  0.03794323  0.70120147     0.18400
C601        C  0.32610382  0.36093276  0.34710460    -0.07500
C602        C  0.35100979  0.39156151  0.32836457    -0.18600
C603        C  0.37926843  0.42971946  0.33749440     0.09700
C604        C  0.38239650  0.43761109  0.36598609    -0.07400
C605        C  0.35772789  0.40693807  0.38475714    -0.18600
C606        C  0.32927666  0.36876932  0.37560516     0.09800
S607        S  0.41137092  0.46609533  0.31194633    -0.33600
S608        S  0.29692144  0.33244156  0.40108992    -0.33600
H609        H  0.26246544  0.31464811  0.38436380     0.27800
H610        H  0.44586480  0.48394935  0.32862512     0.27800
H611        H  0.34921137  0.38547760  0.30637473     0.18400
H612        H  0.35973308  0.41312827  0.40673135     0.18400
C613        C  0.44634488  0.11032525  0.19045297    -0.07500
C614        C  0.47642196  0.10029514  0.18596557    -0.18600
C615        C  0.46643938  0.06055490  0.18075555     0.09700
C616        C  0.42558332  0.03062347  0.17870609    -0.07400
C617        C  0.39548037  0.04083794  0.18243736    -0.18600
C618        C  0.40547560  0.08047692  0.18834999     0.09800
S619        S  0.50698974  0.04945643  0.17846514    -0.33600
S620        S  0.36497358  0.09124366  0.19296878    -0.33600
H621        H  0.38740664  0.13246004  0.18601796     0.27800
H622        H  0.48451553  0.00933625  0.18791735     0.27800
H623        H  0.50779400  0.12291068  0.18860055     0.18400
H624        H  0.36414260  0.01813792  0.17985281     0.18400
C625        C  0.11432897  0.11633928  0.35933010    -0.07500
C626        C  0.14479890  0.15610994  0.35458471    -0.18600
C627        C  0.13542433  0.18627197  0.34966921     0.09700
C628        C  0.09473346  0.17626074  0.34886115    -0.07400
C629        C  0.06415497  0.13626747  0.35303359    -0.18600
C630        C  0.07362626  0.10597109  0.35775794     0.09800
S631        S  0.17664558  0.23714051  0.34518020    -0.33600
S632        S  0.03290237  0.05452193  0.36035750    -0.33600
H633        H  0.05570214  0.03642257  0.35253947     0.27800
H634        H  0.15607337  0.25637212  0.35544207     0.27800
H635        H  0.17612244  0.16424291  0.35646488     0.18400
H636        H  0.03289015  0.12823349  0.35097200     0.18400
C637        C  0.29142779  0.46176251  0.03299443    -0.07500
C638        C  0.25211384  0.44814629  0.02435060    -0.18600
C639        C  0.23948844  0.47557354  0.01789982     0.09700
C640        C  0.26707804  0.01758808  0.02023180    -0.07400
C641        C  0.30659872  0.03129873  0.02888351    -0.18600
C642        C  0.31847911  0.50325302  0.03648524     0.09800
S643        S  0.18903340  0.45720231  0.00535517    -0.33600
S644        S  0.36703771  0.02094613  0.05243484    -0.33600
H645        H  0.37923691  0.56194054  0.05211247     0.27800
H646        H  0.17809824  0.41618811  0.00356367     0.27800
H647        H  0.23126337  0.41596515  0.02309174     0.18400
H648        H  0.32761543  0.06345760  0.02982348     0.18400
C649        C  0.26366424  0.19612239  0.51569003    -0.07500
C650        C  0.23398945  0.20659934  0.52042527    -0.18600
C651        C  0.24457972  0.24637593  0.52604596     0.09700
C652        C  0.28561832  0.27589671  0.52786986    -0.07400
C653        C  0.31534133  0.26532423  0.52343741    -0.18600
C654        C  0.30468770  0.22550150  0.51759110     0.09800
S655        S  0.20452532  0.25801961  0.52972435    -0.33600
S656        S  0.34442945  0.21348789  0.51350294    -0.33600
H657        H  0.32155512  0.17293393  0.52205054     0.27800
H658        H  0.22713692  0.29823805  0.52052139     0.27800
H659        H  0.20248401  0.18422238  0.51808446     0.18400
H660        H  0.34682257  0.28767795  0.52590427     0.18400
C661        C  0.42557317  0.34369813  0.68235353    -0.07500
C662        C  0.46441240  0.35906759  0.69272899    -0.18600
C663        C  0.47827116  0.33317361  0.70066971     0.09700
C664        C  0.45309163  0.29121983  0.69729386    -0.07400
C665        C  0.41450932  0.27581205  0.68641059    -0.18600
C666        C  0.40053352  0.30174268  0.67861251     0.09800
S667        S  0.52781279  0.35543682  0.71550439    -0.33600
S668        S  0.35236641  0.27986055  0.66174154    -0.33600
H669        H  0.34007541  0.30535385  0.67387144     0.27800
H670        H  0.51856803  0.32536064  0.73554445     0.27800
H671        H  0.48408720  0.39145634  0.69448187     0.18400
H672        H  0.39518222  0.24345544  0.68414364     0.18400
C673        C  0.09490465  0.36151537  0.84842459    -0.07500
C674        C  0.13230998  0.38198723  0.86132634    -0.18600
C675        C  0.14817672  0.42206652  0.86917832     0.09700
C676        C  0.12621831  0.44180244  0.86328242    -0.07400
C677        C  0.08912696  0.42149105  0.85001901    -0.18600
C678        C  0.07314647  0.38138335  0.84243407     0.09800
S679        S  0.19504209  0.44503684  0.88789913    -0.33600
S680        S  0.02625853  0.35818299  0.82385570    -0.33600
H681        H  0.01099406  0.31960250  0.83550592     0.27800
H682        H  0.20661636  0.48554913  0.88270265     0.27800
H683        H  0.14938120  0.36674834  0.86497789     0.18400
H684        H  0.07203298  0.43669147  0.84627723     0.18400
C685        C  0.21556681  0.05215395  0.19574972    -0.07500
C686        C  0.22959451  0.09062332  0.18458666    -0.18600
C687        C  0.20260455  0.10312536  0.17679095     0.09700
C688        C  0.16118443  0.07670741  0.18090272    -0.07400
C689        C  0.14709428  0.03790395  0.19159209    -0.18600
C690        C  0.17406972  0.02549971  0.19955353     0.09800
S691        S  0.22093832  0.15172864  0.16026257    -0.33600
S692        S  0.15387170  0.97599476  0.21493352    -0.33600
H693        H  0.18463668  0.98635019  0.23432497     0.27800
H694        H  0.26212584  0.16409303  0.16155437     0.27800
H695        H  0.26166039  0.11077549  0.18220874     0.18400
H696        H  0.11504895  0.01740318  0.19384504     0.18400
C697        C  0.07132765  0.38348193  0.36790941    -0.07500
C698        C  0.09643907  0.42288980  0.35848216    -0.18600
C699        C  0.13550286  0.43515565  0.35009581     0.09700
C700        C  0.14979009  0.40759173  0.35175365    -0.07400
C701        C  0.12476556  0.36814604  0.36123075    -0.18600
C702        C  0.08583319  0.35610812  0.37016402     0.09800
S703        S  0.16502263  0.48566468  0.33643092    -0.33600
S704        S  0.05726737  0.30666370  0.38562620    -0.33600
H705        H  0.03651550  0.31694144  0.40508888     0.27800
H706        H  0.18095428  0.47480040  0.31390650     0.27800
H707        H  0.08540782  0.44410968  0.35751566     0.18400
H708        H  0.13583366  0.34695009  0.36201517     0.18400
C709        C  0.31678733  0.23754318  0.02355769    -0.07500
C710        C  0.30670882  0.26788374  0.02664639    -0.18600
C711        C  0.26711595  0.25812660  0.03125503     0.09700
C712        C  0.23709130  0.21717518  0.03365083    -0.07400
C713        C  0.24729810  0.18673077  0.03148131    -0.18600
C714        C  0.28705617  0.19659816  0.02663826     0.09800
S715        S  0.25654384  0.29923508  0.03288567    -0.33600
S716        S  0.29839148  0.15606403  0.02509285    -0.33600
H717        H  0.33906250  0.17980182  0.03222303     0.27800
H718        H  0.21718940  0.27718671  0.02255469     0.27800
H719        H  0.32930045  0.29929447  0.02343736     0.18400
H720        H  0.22456875  0.15537259  0.03465757     0.18400
C721        C  0.49689381  0.24780098  0.51385345    -0.07500
C722        C  0.48204658  0.20826567  0.52329656    -0.18600
C723        C  0.00776338  0.19488399  0.53175368     0.09700
C724        C  0.04954528  0.22182396  0.53043316    -0.07400
C725        C  0.06459829  0.26138908  0.52097781    -0.18600
C726        C  0.03859422  0.27430530  0.51179613     0.09800
S727        S  0.48630588  0.14423020  0.54498796    -0.33600
S728        S  0.06037775  0.32375946  0.49628194    -0.33600
H729        H  0.03224047  0.31245400  0.47481252     0.27800
H730        H  0.01589225  0.15046720  0.56374785     0.27800
H731        H  0.44988959  0.18752317  0.52388542     0.18400
H732        H  0.09678345  0.28201891  0.52031939     0.18400
C733        C  0.33677951  0.41747783  0.84353245    -0.07500
C734        C  0.32888670  0.39991277  0.86973928    -0.18600
C735        C  0.35155057  0.38353419  0.87976083     0.09700
C736        C  0.38356931  0.38631253  0.86355152    -0.07400
C737        C  0.39119003  0.40336448  0.83719347    -0.18600
C738        C  0.36811549  0.41923740  0.82697954     0.09800
S739        S  0.33741069  0.35834825  0.91291356    -0.33600
S740        S  0.38081882  0.44227750  0.79312032    -0.33600
H741        H  0.36959540  0.47155054  0.79862149     0.27800
H742        H  0.34939835  0.32979116  0.90680571     0.27800
H743        H  0.30392273  0.39743131  0.88190887     0.18400
H744        H  0.41617196  0.40581395  0.82505966     0.18400
C745        C  0.48441968  0.07577953  0.68808715    -0.07500
C746        C  0.47385096  0.10552629  0.69265588    -0.18600
C747        C  0.43424566  0.09474420  0.69854855     0.09700
C748        C  0.40500211  0.05345687  0.70060345    -0.07400
C749        C  0.41563722  0.02368996  0.69630535    -0.18600
C750        C  0.45526521  0.03451644  0.69023551     0.09800
S751        S  0.42242027  0.13483079  0.70222209    -0.33600
S752        S  0.96764665  0.99502962  0.68550760    -0.33600
H753        H  0.00845752  0.01820173  0.69270487     0.27800
H754        H  0.38278767  0.11237339  0.69241220     0.27800
H755        H  0.49596095  0.13719090  0.68984068     0.18400
H756        H  0.39337780  0.99202085  0.69877179     0.18400
C757        C  0.29561878  0.99931044  0.71432680     0.78900
N758        N  0.29553812  0.51699729  0.73907283    -0.79400
C759        C  0.33079827  0.54761745  0.74969189     0.81300
N760        N  0.36548772  0.55955046  0.73604255    -0.79400
C761        C  0.36638088  0.54271055  0.71192748     0.81400
N762        N  0.33209111  0.51241396  0.70126116    -0.81100
C763        C  0.09184622  0.63400186  0.66791706     0.78900
N764        N  0.05781449  0.61861281  0.68348804    -0.79400
C765        C  0.02277288  0.58813625  0.67388568     0.81300
N766        N  0.02091914  0.57343648  0.64839046    -0.79400
C767        C  0.05383829  0.58771313  0.63234726     0.81400
N768        N  0.08989370  0.61847751  0.64194302    -0.81100
C769        C  0.27999154  0.97074613  0.83177998     0.78900
N770        N  0.26129449  0.95321367  0.80729895    -0.79400
C771        C  0.26735689  0.92374909  0.79563361     0.81300
N772        N  0.29264926  0.91364559  0.80771679    -0.79400
C773        C  0.31130827  0.93113861  0.83132610     0.81400
N774        N  0.30462798  0.95904089  0.84356331    -0.81100
C775        C  0.44192781  0.83635788  0.87781632     0.78900
N776        N  0.45782003  0.85259917  0.90312187    -0.79400
C777        C  0.45261567  0.88319114  0.91354936     0.81300
N778        N  0.43110836  0.89600005  0.89937757    -0.79400
C779        C  0.41492535  0.87967711  0.87495267     0.81400
N780        N  0.42046499  0.85026075  0.86402465    -0.81100
C781        C  0.44366909  0.80312491  0.49872499     0.78900
N782        N  0.46550410  0.78929083  0.51206690    -0.79400
C783        C  0.46920189  0.75849668  0.50164386     0.81300
N784        N  0.45160887  0.74128272  0.47769112    -0.79400
C785        C  0.42974746  0.75402671  0.46370970     0.81400
N786        N  0.42583878  0.78564384  0.47397350    -0.81100
C787        C  0.10694970  0.66985458  0.54470150     0.78900
N788        N  0.08412785  0.68256285  0.53139979    -0.79400
C789        C  0.07816499  0.71169143  0.54237574     0.81300
N790        N  0.09462590  0.72847534  0.56666411    -0.79400
C791        C  0.11742671  0.71678779  0.58047084     0.81400
N792        N  0.12344389  0.68674906  0.56979235    -0.81100
C793        C  0.42272372  0.79754416  0.00211253     0.78900
N794        N  0.38930857  0.78090369  0.01838830    -0.79400
C795        C  0.35450211  0.74904452  0.00956657     0.81300
N796        N  0.35225080  0.73437527  0.98395760    -0.79400
C797        C  0.38454681  0.75029288  0.96711943     0.81400
N798        N  0.42024730  0.78223956  0.97605393    -0.81100
C799        C  0.12744852  0.66463703  0.04585860     0.85500
N800        N  0.16363996  0.67704183  0.03338492    -0.79400
C801        C  0.19774992  0.70718498  0.04436857     0.81300
N802        N  0.19618226  0.72446248  0.06807945    -0.79400
C803        C  0.16114325  0.71293581  0.08112028     0.81400
N804        N  0.12611168  0.68239963  0.07027037    -0.81100
C805        C  0.46211056  0.83278574  0.38071571     0.78900
N806        N  0.46155087  0.85133274  0.40502032    -0.79400
C807        C  0.49703568  0.88203515  0.41546482     0.81300
N808        N  0.03196740  0.89300207  0.40206497    -0.79400
C809        C  0.03254180  0.87430408  0.37876515     0.81400
N810        N  0.49798949  0.84453858  0.36807599    -0.81100
C811        C  0.25653319  0.96459532  0.33364486     0.78900
N812        N  0.22232188  0.94867554  0.34900765    -0.79400
C813        C  0.18798369  0.91668525  0.33983509     0.81300
N814        N  0.18706229  0.90054920  0.31503980    -0.79400
C815        C  0.22009638  0.91563510  0.29902132     0.81400
N816        N  0.25535220  0.94823876  0.30807192    -0.81100
C817        C  0.10958194  0.63319925  0.16532520     0.78900
N818        N  0.12976613  0.61807617  0.17934952    -0.79400
C819        C  0.13277276  0.58672161  0.16920796     0.81300
N820        N  0.11634255  0.57048603  0.14478850    -0.79400
C821        C  0.09616258  0.58464963  0.13022255     0.81400
N822        N  0.09289861  0.61665500  0.14021469    -0.81100
C823        C  0.27255930  0.00068382  0.21071451     0.78900
N824        N  0.24997253  0.51303128  0.19724150    -0.79400
C825        C  0.24427594  0.54258679  0.20765652     0.81300
N826        N  0.26080459  0.56004496  0.23180205    -0.79400
C827        C  0.28342692  0.54855686  0.24604043     0.81400
N828        N  0.28921026  0.51801520  0.23585976    -0.81100
C829        C  0.03809354  0.75475691  0.83171801     0.78900
N830        N  0.05061671  0.79089992  0.84419670    -0.79400
C831        C  0.08014560  0.82516269  0.83280283     0.81300
N832        N  0.09753735  0.82410379  0.80903307    -0.79400
C833        C  0.08615053  0.78901567  0.79603555     0.81400
N834        N  0.05576011  0.75364229  0.80711188    -0.81100
C835        C  0.17469705  0.55030905  0.87832121     0.78900
N836        N  0.15701030  0.54907180  0.90337796    -0.79400
C837        C  0.12803909  0.51248301  0.91398837     0.81300
N838        N  0.11749588  0.97945812  0.90037645    -0.79400
C839        C  0.13393850  0.98059364  0.87568878     0.81400
N840        N  0.16359353  0.51514064  0.86488205    -0.81100
C841        C  0.37432792  0.90197526  0.66672489     0.78900
N842        N  0.39188119  0.91847564  0.64166363    -0.79400
C843        C  0.42125372  0.91139289  0.63114548     0.81300
N844        N  0.43137073  0.88724627  0.64492551    -0.79400
C845        C  0.41405872  0.87090896  0.66924064     0.81400
N846        N  0.38599120  0.87835300  0.68026821    -0.81100
C847        C  0.01006990  0.74018754  0.71350960     0.78900
N848        N  0.99581185  0.76140534  0.69970089    -0.79400
C849        C  0.46421275  0.76421232  0.70917319     0.81300
N850        N  0.44830494  0.74875248  0.73402900    -0.79400
C851        C  0.46152116  0.72777085  0.74875452     0.81400
N852        N  0.49264665  0.72321765  0.73859769    -0.81100
C853        C  0.20577159  0.58797093  0.49863129     0.78900
N854        N  0.22034845  0.62313098  0.51282304    -0.79400
C855        C  0.25118077  0.65764479  0.50260671     0.81300
N856        N  0.26701253  0.65770341  0.47777654    -0.79400
C857        C  0.25337070  0.62352199  0.46304256     0.81400
N858        N  0.22222119  0.58806680  0.47328922    -0.81100
C859        C  0.34094762  0.88513491  0.54437529     0.78900
N860        N  0.32781864  0.84988826  0.53036659    -0.79400
C861        C  0.29727602  0.81492329  0.54044573     0.81300
N862        N  0.28031785  0.81453697  0.56482647    -0.79400
C863        C  0.29250464  0.84857358  0.57932526     0.81400
N864        N  0.32337873  0.88447362  0.56935216    -0.81100
C865        C  0.20963131  0.56758234  0.00226365     0.78900
N866        N  0.22602322  0.58270116  0.97669375    -0.79400
C867        C  0.25824550  0.57945525  0.96728776     0.81300
N868        N  0.27304303  0.56089687  0.98307215    -0.79400
C869        C  0.25706080  0.54589746  0.00803666     0.81400
N870        N  0.22533292  0.54886988  0.01748987    -0.81100
C871        C  0.34255073  0.90367827  0.04556272     0.78900
N872        N  0.33053983  0.92770060  0.03303539    -0.79400
C873        C  0.30072929  0.93240745  0.04400723     0.81300
N874        N  0.28266524  0.91356659  0.06752754    -0.79400
C875        C  0.29375371  0.88973436  0.08067080     0.81400
N876        N  0.32443210  0.88484503  0.07002223    -0.81100
C877        C  0.17441072  0.56975491  0.37883119     0.78900
N878        N  0.15757780  0.58672390  0.36308258    -0.79400
C879        C  0.12579275  0.58949875  0.37241058     0.81300
N880        N  0.11119167  0.57644867  0.39796504    -0.79400
C881        C  0.12698224  0.55934872  0.41422572     0.81400
N882        N  0.15907179  0.55592196  0.40482551    -0.81100
C883        C  0.04030540  0.73071819  0.33280594     0.78900
N884        N  0.05763600  0.74738287  0.30770894    -0.79400
C885        C  0.08829840  0.74209637  0.29754837     0.81300
N886        N  0.10049792  0.72024760  0.31201116    -0.79400
C887        C  0.08381625  0.70394950  0.33651119     0.81400
N888        N  0.05346238  0.70858364  0.34675428    -0.81100
C889        C  0.00576154  0.71707862  0.21061410     0.78900
N890        N  0.48952503  0.71545398  0.23622224    -0.79400
C891        C  0.45768974  0.67973473  0.24560061     0.81300
N892        N  0.44292253  0.64663893  0.22964216    -0.79400
C893        C  0.45839363  0.64804935  0.20442375     0.81400
N894        N  0.48992297  0.68285213  0.19506469    -0.81100
C895        C  0.37055498  0.92087998  0.16471602     0.78900
N896        N  0.38785726  0.92018201  0.13992892    -0.79400
C897        C  0.41858353  0.95549622  0.12924181     0.81300
N898        N  0.43092857  0.99032097  0.14291458    -0.79400
C899        C  0.41418668  0.99123570  0.16710795     0.81400
N900        N  0.38376186  0.95677828  0.17786733    -0.81100
C901        C  0.27283483  0.75171833  0.33277075     0.78900
N902        N  0.29393470  0.78743839  0.34625631    -0.79400
C903        C  0.29817191  0.82198980  0.33531304     0.81300
N904        N  0.28177069  0.82121729  0.31080626    -0.79400
C905        C  0.26108400  0.78671519  0.29677144     0.81400
N906        N  0.25665370  0.75135243  0.30743362    -0.81100
C907        C  0.43481525  0.54737366  0.37938897     0.78900
N908        N  0.45340143  0.54878598  0.40395035    -0.79400
C909        C  0.45027907  0.51391477  0.41458885     0.81300
N910        N  0.42827695  0.97877970  0.40117077    -0.79400
C911        C  0.41007346  0.97727681  0.37723156     0.81400
N912        N  0.41298900  0.51126299  0.36651913    -0.81100
C913        C  0.26926688  0.71558683  0.71323692     0.78900
N914        N  0.28764618  0.71634313  0.73782346    -0.79400
C915        C  0.28240897  0.68074632  0.74891868     0.81300
N916        N  0.25857894  0.64566622  0.73595882    -0.79400
C917        C  0.24035362  0.64488277  0.71220764     0.81400
N918        N  0.24547640  0.67947626  0.70090315    -0.81100
C919        C  0.10492696  0.91927528  0.66856131     0.78900
N920        N  0.08997436  0.92091754  0.64310793    -0.79400
C921        C  0.09358797  0.95675497  0.63387031     0.81300
N922        N  0.11237607  0.99000616  0.64965876    -0.79400
C923        C  0.12717907  0.98851369  0.67446608     0.81400
N924        N  0.12385062  0.95357534  0.68374276    -0.81100
C925        C  0.42096008  0.56414932  0.49824735     0.78900
N926        N  0.38561264  0.54256535  0.51205770    -0.79400
C927        C  0.35112972  0.53842155  0.50170045     0.81300
N928        N  0.35132330  0.55486926  0.47715855    -0.79400
C929        C  0.38563408  0.57648814  0.46283664     0.81400
N930        N  0.42109665  0.58120986  0.47316612    -0.81100
C931        C  0.12576950  0.90093719  0.54323054     0.78900
N932        N  0.12652680  0.88541194  0.56872626    -0.79400
C933        C  0.16197724  0.88940146  0.57849100     0.81300
N934        N  0.19555554  0.90870482  0.56312315    -0.79400
C935        C  0.19501305  0.92368465  0.53813385     0.81400
N936        N  0.16049538  0.92042449  0.52838035    -0.81100
C937        C  0.29417174  0.73608942  0.21013118     0.78900
N938        N  0.32948390  0.75846269  0.19634642    -0.79400
C939        C  0.36426646  0.76306788  0.20660374     0.81300
N940        N  0.36446009  0.74647187  0.23102310    -0.79400
C941        C  0.33034869  0.72457882  0.24544932     0.81400
N942        N  0.29462718  0.71933671  0.23520821    -0.81100
C943        C  0.08847463  0.89774488  0.16567725     0.78900
N944        N  0.05442656  0.88031125  0.18121739    -0.79400
C945        C  0.02029216  0.87835831  0.17199497     0.81300
N946        N  0.01941098  0.89257850  0.14679367    -0.79400
C947        C  0.05240453  0.90992027  0.13071426     0.81400
N948        N  0.08753516  0.91261556  0.13996273    -0.81100
C949        C  0.44012286  0.58570670  0.00114810     0.78900
N950        N  0.45914278  0.61992448  0.01642754    -0.79400
C951        C  0.46247768  0.65493754  0.00729582     0.81300
N952        N  0.44793687  0.65660891  0.98242409    -0.79400
C953        C  0.42908045  0.62346345  0.96659361     0.81400
N954        N  0.42514882  0.58749190  0.97576045    -0.81100
C955        C  0.10180314  0.88051927  0.04640197     0.78900
N956        N  0.07938197  0.84480363  0.03331056    -0.79400
C957        C  0.07496310  0.81026544  0.04412198     0.81300
N958        N  0.09208418  0.81076119  0.06832065    -0.79400
C959        C  0.11455875  0.84554552  0.08191193     0.81400
N960        N  0.11941899  0.88106729  0.07119424    -0.81100
C961        C  0.25518166  0.73141113  0.83200057     0.78900
N962        N  0.21933469  0.70877484  0.84501700    -0.79400
C963        C  0.18518665  0.70455536  0.83404580     0.81300
N964        N  0.18607747  0.72228407  0.80997062    -0.79400
C965        C  0.22086399  0.74488666  0.79637306     0.81400
N966        N  0.25607579  0.74946329  0.80713544    -0.81100
C967        C  0.46011693  0.56991216  0.87854059     0.78900
N968        N  0.49505508  0.59235490  0.86447133    -0.79400
C969        C  0.02958929  0.59923368  0.87508209     0.81300
N970        N  0.03108559  0.58377688  0.89966149    -0.79400
C971        C  0.49759889  0.56074033  0.91410690     0.81400
N972        N  0.46134425  0.55407925  0.90382732    -0.81100
O973        O  0.36936754  0.58907674  0.78679427    -0.81500
O974        O  0.23341441  0.61445893  0.88593055    -0.83000
O975        O  0.27425000  0.52977969  0.82671617    -0.80000
O976        O  0.28501449  0.64181951  0.78631382    -0.78400
O977        O  0.33198565  0.70918081  0.78390928    -0.80200
O978        O  0.30376023  0.52221428  0.86562208    -0.81100
O979        O  0.22686337  0.58067979  0.84538776    -0.82500
O980        O  0.30236273  0.56949993  0.78439175    -0.82800
Eu981      Eu  0.29409141  0.60221868  0.82469437     2.39200
O982        O  0.30815913  0.66542770  0.84076456    -0.90300
O983        O  0.34495838  0.58942124  0.84082724    -0.93900
C984        C  0.33388148  0.56935826  0.77552593     1.00800
C985        C  0.21296556  0.58554850  0.86873899     1.00600
C986        C  0.28422423  0.50904325  0.84261808     1.00600
C987        C  0.30077228  0.67755449  0.77490687     0.98400
H988        H  0.27114945  0.57757434  0.88085061     0.28200
O989        O  0.29508177  0.60050661  0.87351807    -1.02700
H990        H  0.35839023  0.65229011  0.78903050     0.28200
O991        O  0.35821005  0.65224678  0.80895841    -1.05200
O992        O  0.34387583  0.71120352  0.92922707    -0.82400
O993        O  0.48008055  0.69015779  0.82647648    -0.82000
O994        O  0.29828772  0.57927730  0.92928730    -0.80400
O995        O  0.31968165  0.73669831  0.82622125    -0.83700
O996        O  0.42073374  0.72656890  0.78625530    -0.81600
O997        O  0.39602243  0.56540556  0.88613896    -0.80200
O998        O  0.42945088  0.66427406  0.92893852    -0.81800
O999        O  0.44438795  0.77589765  0.88560276    -0.83700
O1000       O  0.38375356  0.59633255  0.93000070    -0.80400
O1001       O  0.41697831  0.78333441  0.84554763    -0.83100
O1002       O  0.27524659  0.62452170  0.92997226    -0.78800
O1003       O  0.43051904  0.59289429  0.84580279    -0.78900
O1004       O  0.44077162  0.67906137  0.78440059    -0.78500
O1005       O  0.28274233  0.70684681  0.86531577    -0.82000
O1006       O  0.41157881  0.73316441  0.92968079    -0.81400
O1007       O  0.48668536  0.72702637  0.86541463    -0.79800
Eu1008     Eu  0.30618587  0.66447761  0.88926595     2.39800
Eu1009     Eu  0.40816478  0.63802812  0.82477418     2.39600
Eu1010     Eu  0.34523161  0.58797784  0.88926462     2.38400
Eu1011     Eu  0.37176346  0.71645857  0.82456053     2.39900
Eu1012     Eu  0.42074598  0.70277605  0.88910158     2.39800
O1013       O  0.42026483  0.70170916  0.84068547    -0.94200
O1014       O  0.35717550  0.65169926  0.90396133    -0.93100
C1015       C  0.37982348  0.73108045  0.93999495     1.01000
C1016       C  0.50038728  0.72064336  0.84247940     0.99700
C1017       C  0.27784131  0.59494680  0.94022498     0.99100
C1018       C  0.28911904  0.72664021  0.84224766     1.01100
C1019       C  0.44053107  0.71045757  0.77512836     1.00000
C1020       C  0.42526134  0.57382492  0.86906760     0.98900
C1021       C  0.41353940  0.62815222  0.93992595     0.98900
C1022       C  0.43642204  0.79695881  0.86852570     1.01600
H1023       H  0.43198545  0.63954873  0.88097307     0.28900
O1024       O  0.40910405  0.64034069  0.87355327    -1.06300
H1025       H  0.36987106  0.73878992  0.88084569     0.31000
O1026       O  0.36870287  0.71480706  0.87344161    -1.08900
O1027       O  0.45358338  0.92408072  0.95078592    -0.81500
O1028       O  0.10633004  0.94454957  0.05276085    -0.83000
O1029       O  0.08569517  0.97293986  0.95120920    -0.80000
O1030       O  0.48530166  0.85879196  0.99351425    -0.78400
O1031       O  0.45121958  0.85125674  0.03410134    -0.80200
O1032       O  0.10741492  0.53990703  0.94942985    -0.81100
O1033       O  0.07864236  0.90892647  0.01307461    -0.82500
O1034       O  0.49852557  0.90084925  0.94971923    -0.82800
Eu1035     Eu  0.03660213  0.93253373  0.98987977     2.39200
O1036       O  0.03657244  0.93339093  0.03833807    -0.90300
O1037       O  0.02473225  0.98414814  0.97420394    -0.93900
C1038       C  0.46892035  0.90330260  0.93992297     1.00800
C1039       C  0.09724194  0.91461096  0.03638690     1.00600
C1040       C  0.10674999  0.00918380  0.94050813     1.00600
C1041       C  0.45647576  0.83758470  0.01082364     0.98400
H1042       H  0.11037681  0.99560968  0.99886775     0.28200
O1043       O  0.08643613  0.99474747  0.00588042    -1.02700
H1044       H  0.45011476  0.89713131  0.99855272     0.28200
O1045       O  0.47292344  0.92104662  0.00583168    -1.05200
O1046       O  0.09568166  0.54504171  0.09243117    -0.82400
O1047       O  0.43819053  0.52253110  0.99277276    -0.82000
O1048       O  0.14853087  0.56895783  0.99374370    -0.80400
O1049       O  0.51252958  0.90973112  0.09325751    -0.83700
O1050       O  0.40124201  0.89773346  0.05177418    -0.81600
O1051       O  0.03748460  0.55806394  0.95081116    -0.80200
O1052       O  0.06283496  0.60564389  0.05188924    -0.81800
O1053       O  0.45977188  0.49435253  0.09177217    -0.83700
O1054       O  0.09932843  0.61306914  0.01251426    -0.80400
O1055       O  0.44025991  0.92680705  0.09467101    -0.83100
O1056       O  0.15511436  0.54123328  0.03397890    -0.78800
O1057       O  0.46995957  0.51214560  0.94938805    -0.78900
O1058       O  0.39534872  0.92873230  0.01290006    -0.78500
O1059       O  0.07959740  0.95710105  0.09463391    -0.82000
O1060       O  0.04818505  0.56485391  0.09472048    -0.81400
O1061       O  0.46532060  0.55697736  0.03296015    -0.79800
Eu1062     Eu  0.08704233  0.99722537  0.05446979     2.39800
Eu1063     Eu  0.46123748  0.97170333  0.98976330     2.39600
Eu1064     Eu  0.07547716  0.54706462  0.98967520     2.38400
Eu1065     Eu  0.47340286  0.91880837  0.05456013     2.39900
Eu1066     Eu  0.00945838  0.53355011  0.05383424     2.39800
O1067       O  0.46100497  0.97028400  0.03823966    -0.94200
O1068       O  0.07330286  0.54625300  0.03808307    -0.93100
C1069       C  0.07930404  0.56440616  0.10383292     1.01000
C1070       C  0.44620541  0.55165502  0.00986781     0.99700
C1071       C  0.16933052  0.56085329  0.01097410     0.99100
C1072       C  0.04828702  0.92595701  0.10406796     1.01100
C1073       C  0.38130420  0.90825748  0.03564169     1.00000
C1074       C  0.00165241  0.54269880  0.93992508     0.98900
C1075       C  0.09324975  0.62623729  0.03570035     0.98900
C1076       C  0.43995352  0.95844115  0.10329230     1.01600
H1077       H  0.01207002  0.55794388  0.99807785     0.28900
O1078       O  0.01297533  0.53494284  0.00527872    -1.06300
H1079       H  0.02238491  0.98293670  0.08997928     0.31000
O1080       O  0.02280123  0.98313097  0.07008428    -1.08900
O1081       O  0.42856220  0.71344447  0.42593752    -0.81500
O1082       O  0.26966048  0.68822451  0.32599942    -0.83000
O1083       O  0.39649505  0.77415228  0.38634458    -0.80000
O1084       O  0.29359258  0.66276437  0.42534826    -0.78400
O1085       O  0.27412865  0.59536001  0.42757517    -0.80200
O1086       O  0.43329901  0.78090465  0.34728110    -0.81100
O1087       O  0.29788359  0.72413226  0.36558315    -0.82500
O1088       O  0.38100164  0.73317655  0.42836445    -0.82800
Eu1089     Eu  0.34263005  0.70192090  0.38716601     2.39200
O1090       O  0.29446792  0.63834914  0.37113739    -0.90300
O1091       O  0.40643862  0.71444840  0.37133733    -0.93900
C1092       C  0.41224746  0.73291562  0.43745333     1.00800
C1093       C  0.27816376  0.71786512  0.34264916     1.00600
C1094       C  0.42737312  0.79442520  0.37045120     1.00600
C1095       C  0.27413498  0.62697389  0.43665190     0.98400
H1096       H  0.34452385  0.72589241  0.33082698     0.28200
O1097       O  0.34557481  0.70303067  0.33832701    -1.02700
H1098       H  0.35596007  0.65095857  0.42263058     0.28200
O1099       O  0.35617699  0.65108735  0.40270642    -1.05200
O1100       O  0.28471456  0.59045253  0.28333254    -0.82400
O1101       O  0.43920369  0.61171009  0.38531150    -0.82000
O1102       O  0.36978396  0.72376041  0.28322199    -0.80400
O1103       O  0.23463902  0.56663826  0.38577444    -0.83700
O1104       O  0.34653981  0.57788755  0.42537991    -0.81600
O1105       O  0.48083617  0.73572652  0.32535058    -0.80200
O1106       O  0.41694029  0.63913871  0.28312784    -0.81800
O1107       O  0.31858829  0.52667543  0.32500511    -0.83700
O1108       O  0.43967930  0.70736005  0.28240624    -0.80400
O1109       O  0.28424618  0.51923311  0.36546627    -0.83100
O1110       O  0.30223119  0.67770609  0.28171287    -0.78800
O1111       O  0.48770624  0.70854231  0.36578588    -0.78900
O1112       O  0.41352981  0.62542933  0.42755715    -0.78500
O1113       O  0.22810185  0.59668743  0.34666952    -0.82000
O1114       O  0.33075023  0.56866121  0.28179256    -0.81400
O1115       O  0.40964863  0.57479490  0.34639970    -0.79800
Eu1116     Eu  0.29357735  0.63880662  0.32265584     2.39800
Eu1117     Eu  0.42039524  0.66511889  0.38720246     2.39600
Eu1118     Eu  0.40824557  0.71515899  0.32290183     2.38400
Eu1119     Eu  0.30656643  0.58666819  0.38720517     2.39900
Eu1120     Eu  0.36899713  0.59981665  0.32249456     2.39800
O1121       O  0.36964530  0.60137966  0.37101243    -0.94200
O1122       O  0.35720686  0.65164065  0.30771006    -0.93100
C1123       C  0.30041093  0.57004003  0.27223470     1.01000
C1124       C  0.42931649  0.58111208  0.36932831     0.99700
C1125       C  0.33411246  0.70792020  0.27200095     0.99100
C1126       C  0.21430595  0.57653980  0.36955994     1.01100
C1127       C  0.38212145  0.59400376  0.43663992     1.00000
C1128       C  0.50140136  0.72698585  0.34231596     0.98900
C1129       C  0.43754569  0.67534638  0.27235197     0.98900
C1130       C  0.28982083  0.50544099  0.34223976     1.01600
H1131       H  0.44234590  0.66230214  0.33113617     0.28900
O1132       O  0.41881714  0.66203533  0.33851234    -1.06300
H1133       H  0.28235543  0.56450367  0.33117155     0.31000
O1134       O  0.30526458  0.58820657  0.33844225    -1.08900
O1135       O  0.23036921  0.94105236  0.71974850    -0.81500
O1136       O  0.25134137  0.80840012  0.61667099    -0.83000
O1137       O  0.31470418  0.90600983  0.65893335    -0.80000
O1138       O  0.20185636  0.89020909  0.61650071    -0.78400
O1139       O  0.13438365  0.84389515  0.61546273    -0.80200
O1140       O  0.32227341  0.87996775  0.69969935    -0.81100
O1141       O  0.27280117  0.87631760  0.61517578    -0.82500
O1142       O  0.26655455  0.94866673  0.68018476    -0.82800
Eu1143     Eu  0.24162830  0.88305112  0.65605131     2.39200
O1144       O  0.19109645  0.81914893  0.64137641    -0.90300
O1145       O  0.23980972  0.88152927  0.70437876    -0.93900
C1146       C  0.26094807  0.96153725  0.70370138     1.00800
C1147       C  0.27140411  0.84444305  0.60556236     1.00600
C1148       C  0.33574387  0.89839817  0.67621944     1.00600
C1149       C  0.16604698  0.87394965  0.60543171     0.98400
H1150       H  0.27802763  0.83206624  0.66426608     0.28200
O1151       O  0.25407262  0.83088995  0.67159464    -1.02700
H1152       H  0.17808158  0.89374785  0.66475275     0.28200
O1153       O  0.17928633  0.87096999  0.67210774    -1.05200
O1154       O  0.15455972  0.69473818  0.65967839    -0.82400
O1155       O  0.12760259  0.82784272  0.75878706    -0.82000
O1156       O  0.27509552  0.78071441  0.71869898    -0.80400
O1157       O  0.11915746  0.75826515  0.61777969    -0.83700
O1158       O  0.10411469  0.85673368  0.66002680    -0.81600
O1159       O  0.26414888  0.88221402  0.75834608    -0.80200
O1160       O  0.18222635  0.74662462  0.75890357    -0.81800
O1161       O  0.06975734  0.73563567  0.71962513    -0.83700
O1162       O  0.24905086  0.79445835  0.76117634    -0.80400
O1163       O  0.06214097  0.76444949  0.68027280    -0.83100
O1164       O  0.24647421  0.74429734  0.67945299    -0.78800
O1165       O  0.21659871  0.90184536  0.76147270    -0.78900
O1166       O  0.13142481  0.89136902  0.70012535    -0.78500
O1167       O  0.16514465  0.73638663  0.61587615    -0.82000
O1168       O  0.12017058  0.68738283  0.70011856    -0.81400
O1169       O  0.10842972  0.76059747  0.76153940    -0.79800
Eu1170     Eu  0.20421795  0.76813891  0.65615820     2.39800
Eu1171     Eu  0.17662675  0.86918054  0.72098523     2.39600
Eu1172     Eu  0.25537631  0.83349463  0.72034800     2.38400
Eu1173     Eu  0.12762825  0.80656074  0.65670663     2.39900
Eu1174     Eu  0.14176565  0.75467816  0.72094189     2.39800
O1175       O  0.12868120  0.80573305  0.70510059    -0.94200
O1176       O  0.20490232  0.76950737  0.70458700    -0.93100
C1177       C  0.12568459  0.67367056  0.67690785     1.01000
C1178       C  0.10800751  0.79211491  0.77024423     0.99700
C1179       C  0.26543055  0.75020205  0.70269014     0.99100
C1180       C  0.13470708  0.73785706  0.60658202     1.01100
C1181       C  0.11180012  0.88566848  0.67719633     1.00000
C1182       C  0.24828784  0.90189526  0.76999599     0.98900
C1183       C  0.21772878  0.76285885  0.77023202     0.98900
C1184       C  0.04902657  0.74521994  0.70350648     1.01600
H1185       H  0.19131190  0.81913726  0.75637915     0.28900
O1186       O  0.19126891  0.81913699  0.73643115    -1.06300
H1187       H  0.11759483  0.73219495  0.66512815     0.31000
O1188       O  0.14033629  0.75624944  0.67224468    -1.08900
O1189       O  0.19931781  0.75352985  0.11846477    -0.81500
O1190       O  0.06656698  0.77952843  0.21866015    -0.83000
O1191       O  0.10645392  0.69388867  0.15872266    -0.80000
O1192       O  0.11687550  0.80664516  0.11916228    -0.78400
O1193       O  0.16410840  0.87398137  0.11650277    -0.80200
O1194       O  0.13511754  0.68602480  0.19791165    -0.81100
O1195       O  0.05910438  0.74508922  0.17829857    -0.82500
O1196       O  0.13237051  0.73410739  0.11599386    -0.82800
Eu1197     Eu  0.12591115  0.76639560  0.15692639     2.39200
O1198       O  0.14116416  0.82988692  0.17311353    -0.90300
O1199       O  0.17673136  0.75275530  0.17215408    -0.93900
C1200       C  0.16390247  0.73413017  0.10705407     1.00800
C1201       C  0.04549298  0.75071618  0.20152493     1.00600
C1202       C  0.11562969  0.67282422  0.17493879     1.00600
C1203       C  0.13268765  0.84236687  0.10778425     0.98400
H1204       H  0.10370113  0.74225872  0.21289986     0.28200
O1205       O  0.12762187  0.76511021  0.20555311    -1.02700
H1206       H  0.18972628  0.81641249  0.12100821     0.28200
O1207       O  0.18989303  0.81643097  0.14091937    -1.05200
O1208       O  0.17954612  0.87592173  0.26130009    -0.82400
O1209       O  0.31115628  0.85698050  0.15809854    -0.82000
O1210       O  0.12990048  0.74362304  0.26016077    -0.80400
O1211       O  0.15154240  0.90021075  0.15833587    -0.83700
O1212       O  0.25270977  0.88784934  0.11809698    -0.81600
O1213       O  0.22976858  0.73111934  0.21736037    -0.80200
O1214       O  0.25952593  0.82598476  0.25941261    -0.81800
O1215       O  0.27608266  0.94040875  0.21803971    -0.83700
O1216       O  0.21525321  0.75772585  0.26071827    -0.80400
O1217       O  0.24946925  0.94819388  0.17775178    -0.83100
O1218       O  0.10795581  0.78971673  0.26184079    -0.78800
O1219       O  0.26444029  0.75873553  0.17713544    -0.78900
O1220       O  0.27214330  0.83991472  0.11539846    -0.78500
O1221       O  0.11566273  0.87135677  0.19795788    -0.82000
O1222       O  0.24726946  0.89823342  0.26164619    -0.81400
O1223       O  0.31951397  0.89117662  0.19861452    -0.79800
Eu1224     Eu  0.13955973  0.82924757  0.22153692     2.39800
Eu1225     Eu  0.23988630  0.80202725  0.15630660     2.39600
Eu1226     Eu  0.17753196  0.75204857  0.22057275     2.38400
Eu1227     Eu  0.20438913  0.88095004  0.15647890     2.39900
Eu1228     Eu  0.25308677  0.86710275  0.22060878     2.39800
O1229       O  0.25269243  0.86601088  0.17219527    -0.94200
O1230       O  0.19003689  0.81576286  0.23613761    -0.93100
C1231       C  0.21557187  0.89604757  0.27204674     1.01000
C1232       C  0.33216288  0.88639972  0.17480758     0.99700
C1233       C  0.10948612  0.75922945  0.27130798     0.99100
C1234       C  0.12160268  0.89089360  0.17483569     1.01100
C1235       C  0.27215327  0.87153603  0.10655499     1.00000
C1236       C  0.25933882  0.73994012  0.20047387     0.98900
C1237       C  0.24461202  0.78998303  0.27038994     0.98900
C1238       C  0.26820317  0.96164844  0.20105963     1.01600
H1239       H  0.26418772  0.80441621  0.21202230     0.28900
O1240       O  0.24102528  0.80475203  0.20481004    -1.06300
H1241       H  0.20221156  0.90342267  0.21273249     0.31000
O1242       O  0.20139960  0.87963960  0.20528532    -1.08900
O1243       O  0.51242000  0.54712311  0.59490573    -0.81500
O1244       O  0.14658272  0.52391503  0.49224035    -0.83000
O1245       O  0.09530347  0.49774009  0.59549577    -0.80000
O1246       O  0.11109732  0.61003936  0.55182352    -0.78400
O1247       O  0.08400877  0.61774728  0.51167952    -0.80200
O1248       O  0.04975790  0.92946909  0.59634977    -0.81100
O1249       O  0.15335588  0.55998341  0.53163243    -0.82500
O1250       O  0.08062435  0.56912754  0.59539757    -0.82800
Eu1251     Eu  0.08777652  0.53673721  0.55527492     2.39200
O1252       O  0.08706719  0.53562569  0.50683493    -0.90300
O1253       O  0.02442607  0.98555697  0.57038226    -0.93900
C1254       C  0.04901222  0.56750803  0.60554158     1.00800
C1255       C  0.16688099  0.55405383  0.50849370     1.00600
C1256       C  0.07878789  0.96143047  0.60679831     1.00600
C1257       C  0.10293756  0.63114906  0.53488839     0.98400
H1258       H  0.09881639  0.97313813  0.54723795     0.28200
O1259       O  0.07611578  0.97425613  0.53977995    -1.02700
H1260       H  0.03692092  0.57303195  0.54682868     0.28200
O1261       O  0.03598813  0.54913288  0.53948726    -1.05200
O1262       O  0.03612647  0.92382092  0.45251169    -0.82400
O1263       O  0.40076342  0.94851378  0.55239554    -0.82000
O1264       O  0.06287352  0.89900832  0.55134109    -0.80400
O1265       O  0.08729264  0.56016439  0.45192640    -0.83700
O1266       O  0.48582213  0.57002289  0.49221107    -0.81600
O1267       O  0.46348916  0.91324482  0.59417863    -0.80200
O1268       O  0.43932434  0.86334974  0.49263186    -0.81800
O1269       O  0.45191009  0.97554241  0.45250276    -0.83700
O1270       O  0.46951092  0.85623173  0.53130256    -0.80400
O1271       O  0.49946643  0.54306497  0.44966251    -0.83100
O1272       O  0.09802740  0.92729220  0.51138042    -0.78800
O1273       O  0.44204910  0.95975821  0.59587001    -0.78900
O1274       O  0.44890255  0.53972411  0.53119899    -0.78500
O1275       O  0.10773086  0.51290797  0.45083447    -0.82000
O1276       O  0.46894563  0.90424753  0.45021853    -0.81400
O1277       O  0.39365482  0.91488447  0.51170043    -0.79800
Eu1278     Eu  0.07486086  0.97196246  0.49100662     2.39800
Eu1279     Eu  0.47368344  0.99902625  0.55550859     2.39600
Eu1280     Eu  0.01219277  0.92183920  0.55517041     2.38400
Eu1281     Eu  0.03883884  0.55071106  0.49059747     2.39900
Eu1282     Eu  0.46079204  0.93624283  0.49091128     2.39800
O1283       O  0.47524616  0.99961946  0.50702760    -0.94200
O1284       O  0.01163812  0.92277173  0.50671374    -0.93100
C1285       C  0.00064409  0.90438694  0.44117325     1.01000
C1286       C  0.37995673  0.91978579  0.53510691     0.99700
C1287       C  0.09219879  0.90742444  0.53431747     0.99100
C1288       C  0.10707325  0.54380786  0.44109167     1.01100
C1289       C  0.45506436  0.55946223  0.50817228     1.00000
C1290       C  0.44314188  0.92897876  0.60523024     0.98900
C1291       C  0.44927382  0.84262670  0.50856460     0.98900
C1292       C  0.46790443  0.01111535  0.44092181     1.01600
H1293       H  0.43834872  0.91211437  0.54678522     0.28900
O1294       O  0.46235147  0.93503870  0.53960914    -1.06300
H1295       H  0.02538712  0.98655328  0.45547066     0.31000
O1296       O  0.02514216  0.98647106  0.47533991    -1.08900
C1297       C  0.14637433  0.67690728  0.84561527    -0.07500
C1298       C  0.12520448  0.69342295  0.85854671    -0.18600
C1299       C  0.08556207  0.66874338  0.86683392     0.09700
C1300       C  0.06706733  0.62689796  0.86180623    -0.07400
C1301       C  0.08823457  0.61040480  0.84880490    -0.18600
C1302       C  0.12774535  0.63515830  0.84023082     0.09800
S1303       S  0.06141548  0.69199452  0.88540382    -0.33600
S1304       S  0.15260920  0.61167458  0.82281162    -0.33600
H1305       H  0.17636701  0.64397205  0.80491448     0.27800
H1306       H  0.02248508  0.66631001  0.87555501     0.27800
H1307       H  0.13960806  0.72573229  0.86201847     0.18400
H1308       H  0.07407002  0.57802347  0.84575629     0.18400
C1309       C  0.04711490  0.77147728  0.03243178    -0.07500
C1310       C  0.00677154  0.76135618  0.03039154    -0.18600
C1311       C  0.97736822  0.72190781  0.02452021     0.09700
C1312       C  0.48936975  0.69285009  0.02059033    -0.07400
C1313       C  0.52964954  0.70283167  0.02298358    -0.18600
C1314       C  0.05853102  0.74199824  0.02849643     0.09800
S1315       S  0.92592691  0.71085651  0.02258789    -0.33600
S1316       S  0.11023735  0.75338512  0.02931929    -0.33600
H1317       H  0.12710128  0.79395606  0.02092632     0.27800
H1318       H  0.40894364  0.67005665  0.02938130     0.27800
H1319       H  0.99799288  0.78389293  0.03440208     0.18400
H1320       H  0.53845435  0.68034051  0.01888612     0.18400
C1321       C  0.40289715  0.79142277  0.19460140    -0.07500
C1322       C  0.41212574  0.83164086  0.19147006    -0.18600
C1323       C  0.45159815  0.86197027  0.18669227     0.09700
C1324       C  0.48214577  0.85163814  0.18513767    -0.07400
C1325       C  0.47286817  0.81149001  0.18860597    -0.18600
C1326       C  0.43338498  0.78114963  0.19259600     0.09800
S1327       S  0.46127245  0.91314506  0.18284682    -0.33600
S1328       S  0.42333389  0.72965646  0.19368503    -0.33600
H1329       H  0.38360922  0.71210224  0.18402483     0.27800
H1330       H  0.50180013  0.93205328  0.19093935     0.27800
H1331       H  0.38882108  0.83966272  0.19389999     0.18400
H1332       H  0.49601660  0.80325187  0.18608529     0.18400
C1333       C  0.31245929  0.51051177  0.51385684    -0.07500
C1334       C  0.30350822  0.47056284  0.51793730    -0.18600
C1335       C  0.26365878  0.93997447  0.52318870     0.09700
C1336       C  0.23354144  0.95083535  0.52542340    -0.07400
C1337       C  0.24323684  0.99111781  0.52186846    -0.18600
C1338       C  0.28262225  0.02091948  0.51643557     0.09800
S1339       S  0.25365978  0.88878763  0.52739149    -0.33600
S1340       S  0.29329894  0.07259821  0.51416075    -0.33600
H1341       H  0.33179837  0.59064210  0.52174065     0.27800
H1342       H  0.21295237  0.86983909  0.51979506     0.27800
H1343       H  0.32682971  0.46254107  0.51558258     0.18400
H1344       H  0.22049700  0.99978109  0.52495486     0.18400
C1345       C  0.21135896  0.60595320  0.70125268    -0.07500
C1346       C  0.22567947  0.58149303  0.69046875    -0.18600
C1347       C  0.19889511  0.54202751  0.68248576     0.09700
C1348       C  0.15737646  0.52701823  0.68612293    -0.07400
C1349       C  0.14303211  0.55135301  0.69710795    -0.18600
C1350       C  0.16989754  0.59081086  0.70519812     0.09800
S1351       S  0.21759888  0.51189730  0.66613363    -0.33600
S1352       S  0.15143594  0.62091435  0.72173430    -0.33600
H1353       H  0.11079639  0.59047651  0.72314570     0.27800
H1354       H  0.25844100  0.54188413  0.66564305     0.27800
H1355       H  0.25778579  0.59346905  0.68832124     0.18400
H1356       H  0.11091479  0.53947738  0.69903315     0.18400
C1357       C  0.32597570  0.86131653  0.34680365    -0.07500
C1358       C  0.35076850  0.89204961  0.32809248    -0.18600
C1359       C  0.37907402  0.93013830  0.33730623     0.09700
C1360       C  0.38235835  0.93778987  0.36583921    -0.07400
C1361       C  0.35761028  0.90706211  0.38454555    -0.18600
C1362       C  0.32903318  0.86903650  0.37529741     0.09800
S1363       S  0.41105426  0.96673180  0.31182230    -0.33600
S1364       S  0.29612556  0.83276265  0.40060199    -0.33600
H1365       H  0.26183552  0.81565772  0.38369595     0.27800
H1366       H  0.44570270  0.98412056  0.32836088     0.27800
H1367       H  0.34886799  0.88608909  0.30608142     0.18400
H1368       H  0.35958422  0.91312586  0.40653644     0.18400
C1369       C  0.44648586  0.60988653  0.19077761    -0.07500
C1370       C  0.47646200  0.59968828  0.18642126    -0.18600
C1371       C  0.46633596  0.55996886  0.18099388     0.09700
C1372       C  0.42544237  0.53016559  0.17891656    -0.07400
C1373       C  0.39542822  0.54050612  0.18266839    -0.18600
C1374       C  0.40558647  0.58021820  0.18849473     0.09800
S1375       S  0.50677398  0.54877325  0.17809727    -0.33600
S1376       S  0.36530373  0.59144900  0.19248603    -0.33600
H1377       H  0.38815738  0.63258580  0.18538550     0.27800
H1378       H  0.48443400  0.50872281  0.18771253     0.27800
H1379       H  0.50785194  0.62220050  0.18912454     0.18400
H1380       H  0.36407163  0.51791932  0.17998685     0.18400
C1381       C  0.11405952  0.61579805  0.35876689    -0.07500
C1382       C  0.14458997  0.65546932  0.35376207    -0.18600
C1383       C  0.13532512  0.68575978  0.34905624     0.09700
C1384       C  0.09468893  0.67598373  0.34862866    -0.07400
C1385       C  0.06404118  0.63607791  0.35300665    -0.18600
C1386       C  0.07339576  0.60565776  0.35755782     0.09800
S1387       S  0.17660472  0.73654647  0.34442185    -0.33600
S1388       S  0.03256534  0.55431350  0.36047770    -0.33600
H1389       H  0.05500809  0.53611301  0.35199654     0.27800
H1390       H  0.15645096  0.75579599  0.35540108     0.27800
H1391       H  0.17590637  0.66346586  0.35535871     0.18400
H1392       H  0.03278484  0.62819812  0.35124811     0.18400
C1393       C  0.29140413  0.96211913  0.03345507    -0.07500
C1394       C  0.25198248  0.94849835  0.02505676    -0.18600
C1395       C  0.23946805  0.97591923  0.01832008     0.09700
C1396       C  0.26693086  0.51723634  0.02020674    -0.07400
C1397       C  0.30633508  0.53092974  0.02909546    -0.18600
C1398       C  0.31866652  0.00363882  0.03649862     0.09800
S1399       S  0.18905709  0.95751557  0.00565474    -0.33600
S1400       S  0.36672776  0.52046764  0.05259349    -0.33600
H1401       H  0.38010801  0.06250218  0.05100066     0.27800
H1402       H  0.17687726  0.91611962  0.00621269     0.27800
H1403       H  0.23103942  0.91631784  0.02405408     0.18400
H1404       H  0.32722816  0.56309049  0.03034185     0.18400
C1405       C  0.26343287  0.69631650  0.51555527    -0.07500
C1406       C  0.23380968  0.70692720  0.52008007    -0.18600
C1407       C  0.24446728  0.74670474  0.52579276     0.09700
C1408       C  0.28551902  0.77615411  0.52775703    -0.07400
C1409       C  0.31518514  0.76542794  0.52358347    -0.18600
C1410       C  0.30446272  0.72556658  0.51776343     0.09800
S1411       S  0.20447822  0.75841911  0.52957290    -0.33600
S1412       S  0.34411970  0.71333397  0.51416299    -0.33600
H1413       H  0.32089315  0.67268945  0.52243992     0.27800
H1414       H  0.22700161  0.79842301  0.51994726     0.27800
H1415       H  0.20230791  0.68463730  0.51758375     0.18400
H1416       H  0.34665559  0.78768414  0.52624912     0.18400
C1417       C  0.42335264  0.84211947  0.68151158    -0.07500
C1418       C  0.45818755  0.85757311  0.69735495    -0.18600
C1419       C  0.47383254  0.83306375  0.70494134     0.09700
C1420       C  0.45376670  0.79221965  0.69675783    -0.07400
C1421       C  0.41886845  0.77667746  0.68086558    -0.18600
C1422       C  0.40359654  0.80145986  0.67281112     0.09800
S1423       S  0.51860844  0.85528067  0.72583377    -0.33600
S1424       S  0.36014403  0.77995672  0.65054853    -0.33600
H1425       H  0.34586602  0.80627949  0.65766349     0.27800
H1426       H  0.53537301  0.83314465  0.71436589     0.27800
H1427       H  0.47398842  0.88924490  0.70305047     0.18400
H1428       H  0.40319065  0.74503991  0.67511496     0.18400
C1429       C  0.09222656  0.86404602  0.84458897    -0.07500
C1430       C  0.13004687  0.88407577  0.85693140    -0.18600
C1431       C  0.14572387  0.92339004  0.86631426     0.09700
C1432       C  0.12296796  0.94283851  0.86256365    -0.07400
C1433       C  0.08517566  0.92282473  0.85012937    -0.18600
C1434       C  0.06973565  0.88363971  0.84051825     0.09800
S1435       S  0.19355794  0.94531967  0.88390555    -0.33600
S1436       S  0.02185715  0.86104853  0.82307288    -0.33600
H1437       H  0.02680342  0.83332182  0.80681843     0.27800
H1438       H  0.20001956  0.98435730  0.88844292     0.27800
H1439       H  0.14741274  0.86886597  0.85927008     0.18400
H1440       H  0.06755859  0.93781102  0.84807141     0.18400
C1441       C  0.21519802  0.55153041  0.19587005    -0.07500
C1442       C  0.22947062  0.59003905  0.18471068    -0.18600
C1443       C  0.20269600  0.60271609  0.17674378     0.09700
C1444       C  0.16121808  0.57640141  0.18061585    -0.07400
C1445       C  0.14685895  0.53752954  0.19127880    -0.18600
C1446       C  0.17363986  0.52498413  0.19948573     0.09800
S1447       S  0.22140897  0.65151470  0.16042192    -0.33600
S1448       S  0.15312750  0.47552330  0.21499581    -0.33600
H1449       H  0.18393444  0.48567593  0.23431891     0.27800
H1450       H  0.26240315  0.66291470  0.16076460     0.27800
H1451       H  0.26157806  0.61013557  0.18253129     0.18400
H1452       H  0.11476985  0.51712187  0.19336423     0.18400
C1453       C  0.07126590  0.88338567  0.36777552    -0.07500
C1454       C  0.09661815  0.92270126  0.35829025    -0.18600
C1455       C  0.13568388  0.93469759  0.35006305     0.09700
C1456       C  0.14973463  0.90695316  0.35194308    -0.07400
C1457       C  0.12439494  0.86752746  0.36133719    -0.18600
C1458       C  0.08544528  0.85574359  0.37009832     0.09800
S1459       S  0.16554829  0.98514722  0.33635653    -0.33600
S1460       S  0.05644855  0.80622085  0.38539288    -0.33600
H1461       H  0.03496393  0.81618136  0.40443439     0.27800
H1462       H  0.18146313  0.97406585  0.31393445     0.27800
H1463       H  0.08579208  0.94407805  0.35718636     0.18400
H1464       H  0.13522991  0.84614603  0.36219588     0.18400
C1465       C  0.31682081  0.73760822  0.02368185    -0.07500
C1466       C  0.30710273  0.76816191  0.02706993    -0.18600
C1467       C  0.26758826  0.75870671  0.03162194     0.09700
C1468       C  0.23728877  0.71780859  0.03370372    -0.07400
C1469       C  0.24718812  0.68715993  0.03138915    -0.18600
C1470       C  0.28684334  0.69672578  0.02653420     0.09800
S1471       S  0.25755008  0.80016358  0.03345944    -0.33600
S1472       S  0.29765884  0.65585450  0.02457634    -0.33600
H1473       H  0.33862840  0.67920937  0.03103678     0.27800
H1474       H  0.21789184  0.77848169  0.02363939     0.27800
H1475       H  0.32991527  0.79954482  0.02406814     0.18400
H1476       H  0.22425439  0.65583086  0.03437679     0.18400
C1477       C  0.49731163  0.74780749  0.51317609    -0.07500
C1478       C  0.48217410  0.70837341  0.52293285    -0.18600
C1479       C  0.00819139  0.69505266  0.53183807     0.09700
C1480       C  0.04997531  0.72191138  0.53049216    -0.07400
C1481       C  0.06512369  0.76142785  0.52092340    -0.18600
C1482       C  0.03920509  0.77436353  0.51159073     0.09800
S1483       S  0.48594834  0.64433636  0.54516180    -0.33600
S1484       S  0.06119106  0.82357063  0.49565208    -0.33600
H1485       H  0.03241279  0.81246665  0.47463977     0.27800
H1486       H  0.01619958  0.65036862  0.56363966     0.27800
H1487       H  0.44996829  0.68791092  0.52375592     0.18400
H1488       H  0.09732809  0.78195508  0.52019832     0.18400
C1489       C  0.33981679  0.92070270  0.84260237    -0.07500
C1490       C  0.33244997  0.90420360  0.86912942    -0.18600
C1491       C  0.35512637  0.88802222  0.87940342     0.09700
C1492       C  0.38669480  0.88993230  0.86309777    -0.07400
C1493       C  0.39413347  0.90639409  0.83655912    -0.18600
C1494       C  0.37105091  0.92213790  0.82612443     0.09800
S1495       S  0.34135079  0.86396980  0.91294528    -0.33600
S1496       S  0.38366620  0.94470531  0.79213623    -0.33600
H1497       H  0.37222154  0.97388238  0.79736507     0.27800
H1498       H  0.35192234  0.83431674  0.90698667     0.27800
H1499       H  0.30773204  0.90221553  0.88134644     0.18400
H1500       H  0.41889007  0.90835493  0.82440644     0.18400
C1501       C  0.48482531  0.57595033  0.68813934    -0.07500
C1502       C  0.47470905  0.60602761  0.69267925    -0.18600
C1503       C  0.43515868  0.59571041  0.69825629     0.09700
C1504       C  0.40546724  0.55452772  0.69996528    -0.07400
C1505       C  0.41570700  0.52444237  0.69577160    -0.18600
C1506       C  0.45531917  0.53481707  0.69014540     0.09800
S1507       S  0.42406566  0.63627763  0.70205962    -0.33600
S1508       S  0.96757933  0.49467636  0.68544876    -0.33600
H1509       H  0.00841131  0.51773571  0.69261979     0.27800
H1510       H  0.38455207  0.61443078  0.69195927     0.27800
H1511       H  0.49716141  0.63762461  0.69006775     0.18400
H1512       H  0.39315177  0.49284576  0.69809347     0.18400
C1513       C  0.79619215  0.49931994  0.71402210     0.78900
N1514       N  0.79504581  0.01687245  0.73885917    -0.79400
C1515       C  0.83033509  0.04700242  0.74978664     0.81300
N1516       N  0.86517206  0.05851645  0.73642441    -0.79400
C1517       C  0.86617893  0.04174531  0.71229874     0.81400
N1518       N  0.83183620  0.01198725  0.70129775    -0.81100
C1519       C  0.59134117  0.13370733  0.66817064     0.78900
N1520       N  0.55725315  0.11836535  0.68370012    -0.79400
C1521       C  0.52216109  0.08806390  0.67398684     0.81300
N1522       N  0.52032830  0.07352360  0.64843553    -0.79400
C1523       C  0.55329608  0.08778667  0.63243363     0.81400
N1524       N  0.58937804  0.11833768  0.64214706    -0.81100
C1525       C  0.77962173  0.47097358  0.83163148     0.78900
N1526       N  0.76079074  0.45334243  0.80720208    -0.79400
C1527       C  0.76700246  0.42400572  0.79547223     0.81300
N1528       N  0.79261334  0.41421235  0.80740184    -0.79400
C1529       C  0.81138722  0.43183794  0.83094282     0.81400
N1530       N  0.80450805  0.45951913  0.84328099    -0.81100
C1531       C  0.94124586  0.33609805  0.87723365     0.78900
N1532       N  0.95695140  0.35215747  0.90261948    -0.79400
C1533       C  0.95161592  0.38260671  0.91316687     0.81300
N1534       N  0.93020639  0.39552175  0.89898129    -0.79400
C1535       C  0.91423192  0.37943736  0.87445241     0.81400
N1536       N  0.91983953  0.35008546  0.86343456    -0.81100
C1537       C  0.94327394  0.30299584  0.49907683     0.78900
N1538       N  0.96501143  0.28910514  0.51246390    -0.79400
C1539       C  0.96875628  0.25835450  0.50203440     0.81300
N1540       N  0.95125775  0.24119191  0.47804511    -0.79400
C1541       C  0.92943326  0.25394660  0.46403002     0.81400
N1542       N  0.92552047  0.28556773  0.47429042    -0.81100
C1543       C  0.60690803  0.17002377  0.54460084     0.78900
N1544       N  0.58417687  0.18286675  0.53128965    -0.79400
C1545       C  0.57843001  0.21217631  0.54223128     0.81300
N1546       N  0.59498126  0.22893031  0.56650773    -0.79400
C1547       C  0.61761669  0.21704031  0.58032696     0.81400
N1548       N  0.62343835  0.18688479  0.56967413    -0.81100
C1549       C  0.92273261  0.29735439  0.00196461     0.78900
N1550       N  0.88925027  0.28084197  0.01817839    -0.79400
C1551       C  0.85437974  0.24921493  0.00922412     0.81300
N1552       N  0.85212692  0.23469628  0.98357522    -0.79400
C1553       C  0.88448408  0.25050461  0.96680815     0.81400
N1554       N  0.92026117  0.28217959  0.97586502    -0.81100
C1555       C  0.62735876  0.16435101  0.04626415     0.85500
N1556       N  0.66351152  0.17642931  0.03383830    -0.79400
C1557       C  0.69769297  0.20637784  0.04484421     0.81300
N1558       N  0.69622521  0.22381149  0.06850435    -0.79400
C1559       C  0.66118436  0.21256893  0.08147094     0.81400
N1560       N  0.62608957  0.18220591  0.07062383    -0.81100
C1561       C  0.96213366  0.33263590  0.38082662     0.78900
N1562       N  0.96156867  0.35136235  0.40503938    -0.79400
C1563       C  0.99706859  0.38207008  0.41545294     0.81300
N1564       N  0.53157005  0.39282235  0.40203016    -0.79400
C1565       C  0.53221474  0.37435551  0.37863627     0.81400
N1566       N  0.99802594  0.34416857  0.36827581    -0.81100
C1567       C  0.75651938  0.46505414  0.33342146     0.78900
N1568       N  0.72216712  0.44939204  0.34862623    -0.79400
C1569       C  0.68779097  0.41755500  0.33935110     0.81300
N1570       N  0.68698121  0.40133891  0.31460586    -0.79400
C1571       C  0.72016442  0.41617338  0.29874144     0.81400
N1572       N  0.75546059  0.44861029  0.30790104    -0.81100
C1573       C  0.60958849  0.13335975  0.16570358     0.78900
N1574       N  0.63009578  0.11854018  0.17966086    -0.79400
C1575       C  0.63314084  0.08719118  0.16958129     0.81300
N1576       N  0.61639545  0.07063453  0.14529414    -0.79400
C1577       C  0.59590392  0.08452165  0.13079681     0.81400
N1578       N  0.59263988  0.11654900  0.14071627    -0.81100
C1579       C  0.77256445  0.50042796  0.21095112     0.78900
N1580       N  0.75021033  0.01333756  0.19731396    -0.79400
C1581       C  0.74482388  0.04314659  0.20759466     0.81300
N1582       N  0.76140989  0.06067197  0.23170862    -0.79400
C1583       C  0.78378913  0.04899087  0.24604649     0.81400
N1584       N  0.78928103  0.01820855  0.23599923    -0.81100
C1585       C  0.53862628  0.25401038  0.83186967     0.78900
N1586       N  0.55153892  0.28987940  0.84481716    -0.79400
C1587       C  0.58081892  0.32439792  0.83352547     0.81300
N1588       N  0.59795912  0.32382313  0.80949574    -0.79400
C1589       C  0.58652029  0.28892048  0.79618750     0.81400
N1590       N  0.55611392  0.25335630  0.80707031    -0.81100
C1591       C  0.67470723  0.05021813  0.87887518     0.78900
N1592       N  0.65751700  0.04917574  0.90408329    -0.79400
C1593       C  0.62848898  0.01271533  0.91478054     0.81300
N1594       N  0.61904281  0.47884674  0.90097135    -0.79400
C1595       C  0.63635299  0.47994821  0.87663516     0.81400
N1596       N  0.66308538  0.01502004  0.86538466    -0.81100
C1597       C  0.87452309  0.40144679  0.66683032     0.78900
N1598       N  0.89200468  0.41796056  0.64174944    -0.79400
C1599       C  0.92167524  0.41128238  0.63129897     0.81300
N1600       N  0.93215570  0.38749181  0.64517216    -0.79400
C1601       C  0.91481296  0.37100741  0.66945277     0.81400
N1602       N  0.88649778  0.37813400  0.68043506    -0.81100
C1603       C  0.50929765  0.23887106  0.71307662     0.78900
N1604       N  0.49471494  0.25956926  0.69897636    -0.79400
C1605       C  0.96339052  0.26268674  0.70887307     0.81300
N1606       N  0.94691465  0.24638306  0.73342315    -0.79400
C1607       C  0.96051713  0.22587616  0.74826331     0.81400
N1608       N  0.99219295  0.22206160  0.73835734    -0.81100
C1609       C  0.70547499  0.08752256  0.49867731     0.78900
N1610       N  0.71986050  0.12273958  0.51277260    -0.79400
C1611       C  0.75039909  0.15730870  0.50240066     0.81300
N1612       N  0.76615080  0.15737386  0.47755111    -0.79400
C1613       C  0.75277753  0.12314850  0.46293757     0.81400
N1614       N  0.72189449  0.08760843  0.47331408    -0.81100
C1615       C  0.84115153  0.38477259  0.54441471     0.78900
N1616       N  0.82775557  0.34963184  0.53022138    -0.79400
C1617       C  0.79740152  0.31458949  0.54037469     0.81300
N1618       N  0.78089241  0.31400210  0.56498844    -0.79400
C1619       C  0.79330852  0.34794112  0.57964714     0.81400
N1620       N  0.82397685  0.38391894  0.56959740    -0.81100
C1621       C  0.70966038  0.06770952  0.00255734     0.78900
N1622       N  0.72582796  0.08238044  0.97684714    -0.79400
C1623       C  0.75795063  0.07893549  0.96742285     0.81300
N1624       N  0.77284324  0.06059429  0.98334861    -0.79400
C1625       C  0.75712859  0.04609986  0.00846844     0.81400
N1626       N  0.72552002  0.04928483  0.01792355    -0.81100
C1627       C  0.84237120  0.40354848  0.04513058     0.78900
N1628       N  0.83034992  0.42749331  0.03249008    -0.79400
C1629       C  0.80063286  0.43237737  0.04343938     0.81300
N1630       N  0.78267367  0.41378724  0.06706980    -0.79400
C1631       C  0.79372164  0.38996106  0.08030098     0.81400
N1632       N  0.82430866  0.38491698  0.06965308    -0.81100
C1633       C  0.67443279  0.07020243  0.37919601     0.78900
N1634       N  0.65735081  0.08682207  0.36333906    -0.79400
C1635       C  0.62536648  0.08934977  0.37257020     0.81300
N1636       N  0.61086826  0.07646149  0.39816906    -0.79400
C1637       C  0.62695025  0.05975172  0.41454567     0.81400
N1638       N  0.65918346  0.05652806  0.40522309    -0.81100
C1639       C  0.54012044  0.23073343  0.33267235     0.78900
N1640       N  0.55765947  0.24757502  0.30764631    -0.79400
C1641       C  0.58846097  0.24240667  0.29758260     0.81300
N1642       N  0.60055252  0.22047462  0.31205963    -0.79400
C1643       C  0.58363638  0.20397486  0.33646996     0.81400
N1644       N  0.55319290  0.20853099  0.34662035    -0.81100
C1645       C  0.50574182  0.21722881  0.21060813     0.78900
N1646       N  0.98978006  0.21537176  0.23658669    -0.79400
C1647       C  0.95773119  0.17972671  0.24585638     0.81300
N1648       N  0.94276499  0.14670387  0.22980160    -0.79400
C1649       C  0.95828853  0.14812797  0.20459753     0.81400
N1650       N  0.99004870  0.18285164  0.19536327    -0.81100
C1651       C  0.87053813  0.42070068  0.16432675     0.78900
N1652       N  0.88787272  0.42005314  0.13953898    -0.79400
C1653       C  0.91841707  0.45544094  0.12879045     0.81300
N1654       N  0.93048494  0.49027985  0.14238955    -0.79400
C1655       C  0.91370708  0.49109051  0.16659943     0.81400
N1656       N  0.88353621  0.45657063  0.17743496    -0.81100
C1657       C  0.77267643  0.25147140  0.33288520     0.78900
N1658       N  0.79368670  0.28713968  0.34643877    -0.79400
C1659       C  0.79805649  0.32173287  0.33548879     0.81300
N1660       N  0.78188971  0.32105350  0.31089432    -0.79400
C1661       C  0.76129745  0.28660417  0.29678643     0.81400
N1662       N  0.75671420  0.25119278  0.30747375    -0.81100
C1663       C  0.93502898  0.04729255  0.37940597     0.78900
N1664       N  0.95349166  0.04868011  0.40401915    -0.79400
C1665       C  0.95079315  0.01391424  0.41449947     0.81300
N1666       N  0.92792582  0.47862649  0.40134798    -0.79400
C1667       C  0.90968709  0.47713694  0.37742684     0.81400
N1668       N  0.91367885  0.01126605  0.36634516    -0.81100
C1669       C  0.76729137  0.21464394  0.71387956     0.78900
N1670       N  0.78600924  0.21552337  0.73831246    -0.79400
C1671       C  0.77985695  0.17985574  0.74984415     0.81300
N1672       N  0.75473249  0.14461572  0.73749227    -0.79400
C1673       C  0.73615310  0.14376210  0.71388944     0.81400
N1674       N  0.74230417  0.17842128  0.70208954    -0.81100
C1675       C  0.60583890  0.41978911  0.66802466     0.78900
N1676       N  0.59070349  0.42138182  0.64264194    -0.79400
C1677       C  0.59414399  0.45717879  0.63348922     0.81300
N1678       N  0.61294894  0.49043344  0.64927285    -0.79400
C1679       C  0.62792933  0.48895623  0.67400818     0.81400
N1680       N  0.62473246  0.45405839  0.68321702    -0.81100
C1681       C  0.92070213  0.06366150  0.49844537     0.78900
N1682       N  0.88528254  0.04171399  0.51211447    -0.79400
C1683       C  0.85080811  0.03754179  0.50171960     0.81300
N1684       N  0.85106074  0.05428817  0.47729241    -0.79400
C1685       C  0.88542093  0.07622228  0.46309536     0.81400
N1686       N  0.92089645  0.08101173  0.47346662    -0.81100
C1687       C  0.62574438  0.40093181  0.54328259     0.78900
N1688       N  0.62656794  0.38521772  0.56870163    -0.79400
C1689       C  0.66198215  0.38883641  0.57825480     0.81300
N1690       N  0.69544734  0.40801022  0.56276710    -0.79400
C1691       C  0.69485164  0.42319669  0.53786005     0.81400
N1692       N  0.66036753  0.42025031  0.52831479    -0.81100
C1693       C  0.79443100  0.23590726  0.20986690     0.78900
N1694       N  0.82980547  0.25800346  0.19608987    -0.79400
C1695       C  0.86451015  0.26248896  0.20644574     0.81300
N1696       N  0.86455973  0.24602419  0.23095787    -0.79400
C1697       C  0.83038558  0.22440238  0.24539667     0.81400
N1698       N  0.79475887  0.21929712  0.23504241    -0.81100
C1699       C  0.58866231  0.39778587  0.16549832     0.78900
N1700       N  0.55458212  0.38021977  0.18100740    -0.79400
C1701       C  0.52045267  0.37834965  0.17185076     0.81300
N1702       N  0.51963611  0.39284286  0.14673237    -0.79400
C1703       C  0.55266890  0.41032627  0.13068246     0.81400
N1704       N  0.58777323  0.41289447  0.13986602    -0.81100
C1705       C  0.94012160  0.08556966  0.00088485     0.78900
N1706       N  0.95900795  0.11968190  0.01624947    -0.79400
C1707       C  0.96250081  0.15474584  0.00712523     0.81300
N1708       N  0.94823711  0.15659823  0.98218377    -0.79400
C1709       C  0.92947670  0.12353112  0.96627930     0.81400
N1710       N  0.92541432  0.08750018  0.97542839    -0.81100
C1711       C  0.60188337  0.38020822  0.04616337     0.78900
N1712       N  0.57949997  0.34444546  0.03309077    -0.79400
C1713       C  0.57519281  0.30993464  0.04390742     0.81300
N1714       N  0.59234425  0.31052093  0.06810941    -0.79400
C1715       C  0.61480767  0.34532312  0.08166957     0.81400
N1716       N  0.61958462  0.38081162  0.07093688    -0.81100
C1717       C  0.75489755  0.23107037  0.83186205     0.78900
N1718       N  0.71919132  0.20904490  0.84517570    -0.79400
C1719       C  0.68504817  0.20513080  0.83440735     0.81300
N1720       N  0.68578584  0.22241552  0.81016304    -0.79400
C1721       C  0.72042744  0.24436983  0.79625954     0.81400
N1722       N  0.75563023  0.24873180  0.80686829    -0.81100
C1723       C  0.96082186  0.07094981  0.87862410     0.78900
N1724       N  0.99580180  0.09379003  0.86466904    -0.79400
C1725       C  0.52943251  0.09815041  0.87463323     0.81300
N1726       N  0.53108482  0.08335011  0.89945474    -0.79400
C1727       C  0.99837685  0.06231089  0.91441551     0.81400
N1728       N  0.96207324  0.05517769  0.90393328    -0.81100
O1729       O  0.86874504  0.08840549  0.78693431    -0.81500
O1730       O  0.73344093  0.11428721  0.88616109    -0.83000
O1731       O  0.77408593  0.02942292  0.82669697    -0.80000
O1732       O  0.78359440  0.14120843  0.78693233    -0.78400
O1733       O  0.83070614  0.20846962  0.78403253    -0.80200
O1734       O  0.80416506  0.02209946  0.86537831    -0.81100
O1735       O  0.72670312  0.08004561  0.84580563    -0.82500
O1736       O  0.80183199  0.06911872  0.78436197    -0.82800
Eu1737     Eu  0.79376384  0.10176145  0.82481203     2.39200
O1738       O  0.80807959  0.16502526  0.84081591    -0.90300
O1739       O  0.84472876  0.08905146  0.84087861    -0.93900
C1740       C  0.83330902  0.06879411  0.77559046     1.00800
C1741       C  0.71293398  0.08520923  0.86911856     1.00600
C1742       C  0.78444896  0.00885842  0.84244242     1.00600
C1743       C  0.79910116  0.17684400  0.77543884     0.98400
H1744       H  0.77110723  0.07725071  0.88103675     0.28200
O1745       O  0.79496527  0.10017962  0.87363299    -1.02700
H1746       H  0.85772456  0.15157579  0.78883857     0.28200
O1747       O  0.85777200  0.15170784  0.80877540    -1.05200
O1748       O  0.84376962  0.21143777  0.92897158    -0.82400
O1749       O  0.98005087  0.18923415  0.82677064    -0.82000
O1750       O  0.79799214  0.07860781  0.92936504    -0.80400
O1751       O  0.81963976  0.23671459  0.82618165    -0.83700
O1752       O  0.91983172  0.22491806  0.78572898    -0.81600
O1753       O  0.89654144  0.06592025  0.88618012    -0.80200
O1754       O  0.92941429  0.16437824  0.92877928    -0.81800
O1755       O  0.94383442  0.27572186  0.88503069    -0.83700
O1756       O  0.88424592  0.09629470  0.92970978    -0.80400
O1757       O  0.91684476  0.28319514  0.84478392    -0.83100
O1758       O  0.77525283  0.12409768  0.93007770    -0.78800
O1759       O  0.93047688  0.09265954  0.84555479    -0.78900
O1760       O  0.94031288  0.17774256  0.78415750    -0.78500
O1761       O  0.78208320  0.20564837  0.86482645    -0.82000
O1762       O  0.91144178  0.23324183  0.92938728    -0.81400
O1763       O  0.98677393  0.22561426  0.86599502    -0.79800
Eu1764     Eu  0.80613072  0.16417539  0.88930003     2.39800
Eu1765     Eu  0.90785428  0.13763184  0.82471152     2.39600
Eu1766     Eu  0.84513835  0.08771974  0.88930288     2.38400
Eu1767     Eu  0.87143033  0.21600745  0.82424871     2.39900
Eu1768     Eu  0.92054940  0.20264643  0.88887186     2.39800
O1769       O  0.92028372  0.20163929  0.84038178    -0.94200
O1770       O  0.85715757  0.15148134  0.90404976    -0.93100
C1771       C  0.87973983  0.23129983  0.93969061     1.01000
C1772       C  0.00055717  0.21930316  0.84306963     0.99700
C1773       C  0.77762181  0.09437186  0.94031496     0.99100
C1774       C  0.78874483  0.22604548  0.84200853     1.01100
C1775       C  0.93972047  0.20882473  0.77468675     1.00000
C1776       C  0.92564841  0.07419027  0.86901706     0.98900
C1777       C  0.91384323  0.12822454  0.93966758     0.98900
C1778       C  0.93596981  0.29678364  0.86787461     1.01600
H1779       H  0.93168055  0.13955889  0.88076705     0.28900
O1780       O  0.90870082  0.14019214  0.87339994    -1.06300
H1781       H  0.86960365  0.23855297  0.88044074     0.31000
O1782       O  0.86845866  0.21452077  0.87314608    -1.08900
O1783       O  0.95280887  0.42361958  0.95044545    -0.81500
O1784       O  0.60660753  0.44444401  0.05242043    -0.83000
O1785       O  0.58538162  0.47247944  0.95109734    -0.80000
O1786       O  0.98525289  0.35843693  0.99329238    -0.78400
O1787       O  0.95134355  0.35103645  0.03395296    -0.80200
O1788       O  0.60819369  0.04047363  0.95016896    -0.81100
O1789       O  0.57817869  0.40838754  0.01301359    -0.82500
O1790       O  0.99751717  0.40010628  0.94938933    -0.82800
Eu1791     Eu  0.53633277  0.43225051  0.98981388     2.39200
O1792       O  0.53653666  0.43325058  0.03826422    -0.90300
O1793       O  0.52449589  0.48393089  0.97437070    -0.93900
C1794       C  0.96796739  0.40267827  0.93958684     1.00800
C1795       C  0.59717049  0.41427343  0.03617514     1.00600
C1796       C  0.60650055  0.50869560  0.94037076     1.00600
C1797       C  0.95653161  0.33730647  0.01067873     0.98400
H1798       H  0.61038478  0.49553717  0.99855710     0.28200
O1799       O  0.58640991  0.49458645  0.00560269    -1.02700
H1800       H  0.94982304  0.39668371  0.99826697     0.28200
O1801       O  0.97265608  0.42065225  0.00547438    -1.05200
O1802       O  0.59556644  0.04506431  0.09299483    -0.82400
O1803       O  0.93824965  0.02250262  0.99248598    -0.82000
O1804       O  0.64865441  0.06939987  0.99421340    -0.80400
O1805       O  0.01272509  0.40963384  0.09282492    -0.83700
O1806       O  0.90121351  0.39784517  0.05147529    -0.81600
O1807       O  0.53771355  0.05840827  0.95099449    -0.80200
O1808       O  0.56279938  0.10555223  0.05236732    -0.81800
O1809       O  0.95927487  0.99389422  0.09161648    -0.83700
O1810       O  0.59892694  0.11330180  0.01273872    -0.80400
O1811       O  0.94022801  0.42671560  0.09431316    -0.83100
O1812       O  0.65516504  0.04142874  0.03436225    -0.78800
O1813       O  0.97069002  0.01329703  0.94954748    -0.78900
O1814       O  0.89501794  0.42823923  0.01238225    -0.78500
O1815       O  0.57988758  0.45739015  0.09451741    -0.82000
O1816       O  0.54781673  0.06454222  0.09532198    -0.81400
O1817       O  0.96496754  0.05666601  0.03283240    -0.79800
Eu1818     Eu  0.58720291  0.49713755  0.05418357     2.39800
Eu1819     Eu  0.96097186  0.47137091  0.98947206     2.39600
Eu1820     Eu  0.57556761  0.04741345  0.99007289     2.38400
Eu1821     Eu  0.97338942  0.41866318  0.05422655     2.39900
Eu1822     Eu  0.50931351  0.03361243  0.05423061     2.39800
O1823       O  0.96100536  0.47016476  0.03794632    -0.94200
O1824       O  0.57320372  0.04640668  0.03850953    -0.93100
C1825       C  0.57901000  0.06421763  0.10443548     1.01000
C1826       C  0.94608409  0.05148730  0.00964269     0.99700
C1827       C  0.66941222  0.06112480  0.01137005     0.99100
C1828       C  0.54854670  0.42636280  0.10404055     1.01100
C1829       C  0.88112597  0.40806926  0.03524094     1.00000
C1830       C  0.50183240  0.04312910  0.94016812     0.98900
C1831       C  0.59303623  0.12623069  0.03607053     0.98900
C1832       C  0.93999434  0.45839532  0.10292466     1.01600
H1833       H  0.51218589  0.05822245  0.99845220     0.28900
O1834       O  0.51307717  0.03522135  0.00567105    -1.06300
H1835       H  0.52280073  0.48319679  0.08981447     0.31000
O1836       O  0.52308510  0.48327411  0.06992173    -1.08900
O1837       O  0.92836647  0.21341531  0.42621837    -0.81500
O1838       O  0.76948744  0.18800635  0.32611302    -0.83000
O1839       O  0.89662838  0.27395317  0.38656040    -0.80000
O1840       O  0.79328886  0.16250561  0.42537560    -0.78400
O1841       O  0.77375057  0.09507723  0.42755213    -0.80200
O1842       O  0.93305501  0.28105395  0.34722897    -0.81100
O1843       O  0.79777787  0.22392606  0.36568072    -0.82500
O1844       O  0.88071481  0.23302970  0.42863241    -0.82800
Eu1845     Eu  0.84256349  0.20179843  0.38733593     2.39200
O1846       O  0.79458146  0.13823371  0.37123806    -0.90300
O1847       O  0.90642795  0.21441714  0.37155035    -0.93900
C1848       C  0.91198834  0.23283596  0.43774138     1.00800
C1849       C  0.77800520  0.21763380  0.34276462     1.00600
C1850       C  0.92732105  0.29437648  0.37054539     1.00600
C1851       C  0.77371467  0.12667103  0.43661507     0.98400
H1852       H  0.84450219  0.22591944  0.33099038     0.28200
O1853       O  0.84556485  0.20306205  0.33848659    -1.02700
H1854       H  0.85575277  0.15074490  0.42278363     0.28200
O1855       O  0.85602957  0.15089274  0.40286242    -1.05200
O1856       O  0.78484987  0.09065395  0.28340192    -0.82400
O1857       O  0.93875857  0.11131706  0.38555439    -0.82000
O1858       O  0.86968763  0.22361643  0.28331499    -0.80400
O1859       O  0.73447705  0.06653611  0.38591872    -0.83700
O1860       O  0.84636605  0.07769234  0.42559913    -0.81600
O1861       O  0.98090621  0.23581225  0.32554153    -0.80200
O1862       O  0.91691560  0.13915006  0.28335251    -0.81800
O1863       O  0.81856293  0.02648645  0.32519036    -0.83700
O1864       O  0.93977734  0.20739898  0.28265478    -0.80400
O1865       O  0.78426675  0.01895677  0.36567783    -0.83100
O1866       O  0.80206703  0.17784412  0.28189403    -0.78800
O1867       O  0.98771798  0.20836624  0.36587900    -0.78900
O1868       O  0.91330022  0.12540117  0.42791746    -0.78500
O1869       O  0.72827335  0.09737810  0.34713364    -0.82000
O1870       O  0.83102073  0.06903493  0.28182053    -0.81400
O1871       O  0.90976623  0.07471804  0.34642544    -0.79800
Eu1872     Eu  0.79361385  0.13882511  0.32278995     2.39800
Eu1873     Eu  0.92034725  0.16506300  0.38746254     2.39600
Eu1874     Eu  0.90824241  0.21519920  0.32308606     2.38400
Eu1875     Eu  0.80644267  0.08643672  0.38732498     2.39900
Eu1876     Eu  0.86896033  0.09974328  0.32268979     2.39800
O1877       O  0.86961392  0.10133247  0.37120425    -0.94200
O1878       O  0.85726059  0.15166090  0.30790120    -0.93100
C1879       C  0.80067033  0.07038639  0.27226453     1.01000
C1880       C  0.92921001  0.08090311  0.36944759     0.99700
C1881       C  0.83401477  0.20789421  0.27209279     0.99100
C1882       C  0.71432518  0.07693192  0.36989535     1.01100
C1883       C  0.88191250  0.09387796  0.43693574     1.00000
C1884       C  0.00146878  0.22695920  0.34243990     0.98900
C1885       C  0.93758346  0.17536056  0.27259566     0.98900
C1886       C  0.78984726  0.00516819  0.34245300     1.01600
H1887       H  0.94223233  0.16231888  0.33137819     0.28900
O1888       O  0.91869925  0.16202097  0.33876452    -1.06300
H1889       H  0.78223259  0.06423835  0.33124137     0.31000
O1890       O  0.80509426  0.08797580  0.33852922    -1.08900
O1891       O  0.73088109  0.44098714  0.71948242    -0.81500
O1892       O  0.75173133  0.30769321  0.61687518    -0.83000
O1893       O  0.81476796  0.40513362  0.65894813    -0.80000
O1894       O  0.70204653  0.38951765  0.61619248    -0.78400
O1895       O  0.63446469  0.34348795  0.61533094    -0.80200
O1896       O  0.82233518  0.37933856  0.69981973    -0.81100
O1897       O  0.77367471  0.37571458  0.61549063    -0.82500
O1898       O  0.76714020  0.44837021  0.68000175    -0.82800
Eu1899     Eu  0.74179942  0.38258970  0.65594761     2.39200
O1900       O  0.69100237  0.31873244  0.64138417    -0.90300
O1901       O  0.73993786  0.38142719  0.70429223    -0.93900
C1902       C  0.76153421  0.46139250  0.70346026     1.00800
C1903       C  0.77215590  0.34378472  0.60587772     1.00600
C1904       C  0.83581925  0.39764125  0.67629481     1.00600
C1905       C  0.66617799  0.37336574  0.60518626     0.98400
H1906       H  0.77787323  0.33138169  0.66447751     0.28200
O1907       O  0.75392786  0.33035930  0.67169109    -1.02700
H1908       H  0.67849714  0.39345997  0.66448846     0.28200
O1909       O  0.67948772  0.37063673  0.67196316    -1.05200
O1910       O  0.65420907  0.19429122  0.65996457    -0.82400
O1911       O  0.62779390  0.32796307  0.75881969    -0.82000
O1912       O  0.77447147  0.28026789  0.71887296    -0.80400
O1913       O  0.61926883  0.25828518  0.61770417    -0.83700
O1914       O  0.60465719  0.35700512  0.65967047    -0.81600
O1915       O  0.76354126  0.38210303  0.75834349    -0.80200
O1916       O  0.68173996  0.24587857  0.75873554    -0.81800
O1917       O  0.56934226  0.23493393  0.71944433    -0.83700
O1918       O  0.74853372  0.29384664  0.76107632    -0.80400
O1919       O  0.56179580  0.26368717  0.68003650    -0.83100
O1920       O  0.74593526  0.24379094  0.67961564    -0.78800
O1921       O  0.71626805  0.40210801  0.76130556    -0.78900
O1922       O  0.63217128  0.39185116  0.69965814    -0.78500
O1923       O  0.66503948  0.23613678  0.61586518    -0.82000
O1924       O  0.61984872  0.18704103  0.70039787    -0.81400
O1925       O  0.60883384  0.26076477  0.76163499    -0.79800
Eu1926     Eu  0.70400267  0.26769968  0.65619684     2.39800
Eu1927     Eu  0.67671482  0.36914386  0.72082009     2.39600
Eu1928     Eu  0.75521670  0.33330413  0.72041378     2.38400
Eu1929     Eu  0.62754240  0.30630614  0.65669411     2.39900
Eu1930     Eu  0.64151031  0.25449344  0.72089013     2.39800
O1931       O  0.62833488  0.30560594  0.70513084    -0.94200
O1932       O  0.70464606  0.26942630  0.70459036    -0.93100
C1933       C  0.62530873  0.17328007  0.67720295     1.01000
C1934       C  0.60834643  0.29224188  0.77032921     0.99700
C1935       C  0.76455223  0.24961013  0.70297015     0.99100
C1936       C  0.63476758  0.23785126  0.60650510     1.01100
C1937       C  0.61260799  0.38614966  0.67670737     1.00000
C1938       C  0.74782964  0.40199935  0.76990744     0.98900
C1939       C  0.71723912  0.26216089  0.77006726     0.98900
C1940       C  0.54854563  0.24431061  0.70322685     1.01600
H1941       H  0.69112849  0.31895028  0.75630441     0.28900
O1942       O  0.69109827  0.31896362  0.73636062    -1.06300
H1943       H  0.61737080  0.23182517  0.66508689     0.31000
O1944       O  0.64011486  0.25589184  0.67219702    -1.08900
O1945       O  0.69936872  0.25338608  0.11861212    -0.81500
O1946       O  0.56677611  0.27952592  0.21886613    -0.83000
O1947       O  0.60651533  0.19401828  0.15889822    -0.80000
O1948       O  0.61687867  0.30648464  0.11906588    -0.78400
O1949       O  0.66438638  0.37372386  0.11626302    -0.80200
O1950       O  0.63503669  0.18618678  0.19817861    -0.81100
O1951       O  0.55925160  0.24531382  0.17840198    -0.82500
O1952       O  0.63245761  0.23409816  0.11611082    -0.82800
Eu1953     Eu  0.62603853  0.26651733  0.15696090     2.39200
O1954       O  0.64140494  0.33007309  0.17305844    -0.90300
O1955       O  0.67691480  0.25291880  0.17214116    -0.93900
C1956       C  0.66395388  0.23397999  0.10724869     1.00800
C1957       C  0.54563851  0.25082668  0.20166770     1.00600
C1958       C  0.61559437  0.17297309  0.17520448     1.00600
C1959       C  0.63286640  0.34215607  0.10759242     0.98400
H1960       H  0.60393026  0.24237165  0.21292448     0.28200
O1961       O  0.62785093  0.26521103  0.20556992    -1.02700
H1962       H  0.68983873  0.31643105  0.12096465     0.28200
O1963       O  0.69003942  0.31648721  0.14087448    -1.05200
O1964       O  0.67973655  0.37631051  0.26107453    -0.82400
O1965       O  0.81126995  0.35683349  0.15775306    -0.82000
O1966       O  0.63019512  0.24396723  0.26020754    -0.80400
O1967       O  0.65189573  0.40048296  0.15820123    -0.83700
O1968       O  0.75288099  0.38829850  0.11784447    -0.81600
O1969       O  0.73011825  0.23124874  0.21701712    -0.80200
O1970       O  0.75992139  0.32596512  0.25937737    -0.81800
O1971       O  0.77657116  0.44039379  0.21809207    -0.83700
O1972       O  0.71557056  0.25772389  0.26066331    -0.80400
O1973       O  0.74995885  0.44821814  0.17780124    -0.83100
O1974       O  0.60835755  0.29014310  0.26191308    -0.78800
O1975       O  0.76492391  0.25892715  0.17684184    -0.78900
O1976       O  0.77201603  0.34014608  0.11511459    -0.78500
O1977       O  0.61576180  0.37116896  0.19765469    -0.82000
O1978       O  0.74742392  0.39844452  0.26151538    -0.81400
O1979       O  0.81972744  0.39089051  0.19835271    -0.79800
Eu1980     Eu  0.63981655  0.32936301  0.22147949     2.39800
Eu1981     Eu  0.74007207  0.30210377  0.15617341     2.39600
Eu1982     Eu  0.67782717  0.25220909  0.22056832     2.38400
Eu1983     Eu  0.70466272  0.38106808  0.15637118     2.39900
Eu1984     Eu  0.75341941  0.36709289  0.22055914     2.39800
O1985       O  0.75292627  0.36606344  0.17211778    -0.94200
O1986       O  0.69032577  0.31589366  0.23612869    -0.93100
C1987       C  0.71573929  0.39642597  0.27183344     1.01000
C1988       C  0.83229556  0.38617325  0.17448625     0.99700
C1989       C  0.60980388  0.25960867  0.27137153     0.99100
C1990       C  0.62180812  0.39092067  0.17461843     1.01100
C1991       C  0.77215418  0.37184611  0.10625750     1.00000
C1992       C  0.75972851  0.24003538  0.20015645     0.98900
C1993       C  0.74495520  0.28994591  0.27035113     0.98900
C1994       C  0.76861160  0.46161364  0.20115442     1.01600
H1995       H  0.76446813  0.30441847  0.21188547     0.28900
O1996       O  0.74130297  0.30477476  0.20469767    -1.06300
H1997       H  0.70257531  0.40342407  0.21262120     0.31000
O1998       O  0.70172008  0.37962030  0.20518455    -1.08900
O1999       O  0.01323264  0.04721066  0.59503959    -0.81500
O2000       O  0.64639356  0.02340891  0.49237927    -0.83000
O2001       O  0.59437314  0.99769921  0.59608623    -0.80000
O2002       O  0.61098220  0.11014119  0.55180834    -0.78400
O2003       O  0.58373666  0.11776619  0.51171388    -0.80200
O2004       O  0.54997623  0.42981566  0.59618385    -0.81100
O2005       O  0.65311900  0.05958889  0.53172329    -0.82500
O2006       O  0.58023552  0.06949365  0.59539722    -0.82800
Eu2007     Eu  0.58762143  0.03676449  0.55548344     2.39200
O2008       O  0.58686089  0.03555673  0.50703256    -0.90300
O2009       O  0.52423517  0.48566074  0.57021406    -0.93900
C2010       C  0.54855176  0.06769562  0.60557855     1.00800
C2011       C  0.66666185  0.05357640  0.50860737     1.00600
C2012       C  0.57910562  0.46179499  0.60652702     1.00600
C2013       C  0.60276476  0.13122541  0.53486802     0.98400
H2014       H  0.59868744  0.47332419  0.54708923     0.28200
O2015       O  0.57593704  0.47434277  0.53962676    -1.02700
H2016       H  0.53682442  0.07310153  0.54695181     0.28200
O2017       O  0.53591432  0.04921531  0.53960720    -1.05200
O2018       O  0.53573711  0.42350051  0.45250719    -0.82400
O2019       O  0.90084359  0.44834652  0.55229232    -0.82000
O2020       O  0.56292116  0.39923726  0.55150772    -0.80400
O2021       O  0.58736005  0.06059737  0.45222819    -0.83700
O2022       O  0.98570554  0.06984270  0.49244163    -0.81600
O2023       O  0.96399098  0.41329458  0.59431824    -0.80200
O2024       O  0.93936964  0.36337845  0.49281396    -0.81800
O2025       O  0.95193162  0.47548343  0.45258869    -0.83700
O2026       O  0.96939334  0.35620575  0.53155956    -0.80400
O2027       O  0.99954937  0.04309426  0.44984191    -0.83100
O2028       O  0.59799073  0.42741299  0.51150070    -0.78800
O2029       O  0.94205170  0.45942091  0.59584461    -0.78900
O2030       O  0.94893815  0.03964597  0.53148923    -0.78500
O2031       O  0.60756524  0.01317164  0.45106143    -0.82000
O2032       O  0.96900955  0.40423621  0.45024053    -0.81400
O2033       O  0.89378956  0.41458085  0.51167370    -0.79800
Eu2034     Eu  0.57472661  0.47190707  0.49086251     2.39800
Eu2035     Eu  0.97378775  0.49895492  0.55551973     2.39600
Eu2036     Eu  0.51210438  0.42192996  0.55513647     2.38400
Eu2037     Eu  0.53871322  0.05071979  0.49072095     2.39900
Eu2038     Eu  0.96099569  0.43623901  0.49095153     2.39800
O2039       O  0.97543316  0.49960007  0.50703638    -0.94200
O2040       O  0.51151761  0.42279876  0.50666902    -0.93100
C2041       C  0.50022793  0.40399771  0.44119809     1.01000
C2042       C  0.88008060  0.41949892  0.53506474     0.99700
C2043       C  0.59222400  0.40761019  0.53447154     0.99100
C2044       C  0.60706649  0.04419424  0.44139197     1.01100
C2045       C  0.95495096  0.05923359  0.50841427     1.00000
C2046       C  0.94343859  0.42884109  0.60531601     0.98900
C2047       C  0.94911975  0.34259940  0.50883409     0.98900
C2048       C  0.96783590  0.51103442  0.44098430     1.01600
H2049       H  0.93863204  0.41213196  0.54685099     0.28900
O2050       O  0.96261402  0.43504796  0.53964584    -1.06300
H2051       H  0.52514797  0.48638657  0.45531019     0.31000
O2052       O  0.52497078  0.48637211  0.47518274    -1.08900
C2053       C  0.64626654  0.17719963  0.84590171    -0.07500
C2054       C  0.62443338  0.19318016  0.85856977    -0.18600
C2055       C  0.58475174  0.16796140  0.86658198     0.09700
C2056       C  0.56685688  0.12617835  0.86144354    -0.07400
C2057       C  0.58869144  0.11024223  0.84868842    -0.18600
C2058       C  0.62830285  0.13550442  0.84053748     0.09800
S2059       S  0.55973964  0.19037277  0.88508574    -0.33600
S2060       S  0.65439089  0.11283268  0.82376175    -0.33600
H2061       H  0.67561622  0.14415397  0.80459615     0.27800
H2062       H  0.52134507  0.16505195  0.87426335     0.27800
H2063       H  0.63835152  0.22544238  0.86208870     0.18400
H2064       H  0.57502962  0.07791314  0.84559603     0.18400
C2065       C  0.54714758  0.27103855  0.03240125    -0.07500
C2066       C  0.50696859  0.26140270  0.02997343    -0.18600
C2067       C  0.47721556  0.22192332  0.02457126     0.09700
C2068       C  0.98923241  0.19249812  0.02058237    -0.07400
C2069       C  0.02945600  0.20239836  0.02321106    -0.18600
C2070       C  0.55798453  0.24096686  0.02931849     0.09800
S2071       S  0.42586441  0.21115643  0.02288924    -0.33600
S2072       S  0.60929196  0.25128258  0.03127634    -0.33600
H2073       H  0.62731824  0.29191728  0.02283072     0.27800
H2074       H  0.90899698  0.16981323  0.02982478     0.27800
H2075       H  0.49853958  0.28430378  0.03350398     0.18400
H2076       H  0.03826290  0.17987380  0.01925626     0.18400
C2077       C  0.90321345  0.29101452  0.19458996    -0.07500
C2078       C  0.91224962  0.33118406  0.19151762    -0.18600
C2079       C  0.95156350  0.36161932  0.18639217     0.09700
C2080       C  0.98225429  0.35149503  0.18471643    -0.07400
C2081       C  0.97320444  0.31141922  0.18824226    -0.18600
C2082       C  0.93381902  0.28093096  0.19238641     0.09800
S2083       S  0.96069041  0.41254462  0.18208976    -0.33600
S2084       S  0.92409210  0.22954222  0.19319343    -0.33600
H2085       H  0.88398460  0.21162377  0.18429723     0.27800
H2086       H  0.00154436  0.43208325  0.18939272     0.27800
H2087       H  0.88886072  0.33906052  0.19408697     0.18400
H2088       H  0.99644055  0.30332621  0.18559678     0.18400
C2089       C  0.81212123  0.00980899  0.51389119    -0.07500
C2090       C  0.80263995  0.96964052  0.51763331    -0.18600
C2091       C  0.76384814  0.43994465  0.52346726     0.09700
C2092       C  0.73338635  0.45040243  0.52513418    -0.07400
C2093       C  0.74274622  0.49051941  0.52113353    -0.18600
C2094       C  0.78213064  0.52054893  0.51594579     0.09800
S2095       S  0.75435722  0.38901250  0.52819387    -0.33600
S2096       S  0.79240459  0.57207321  0.51340002    -0.33600
H2097       H  0.83252223  0.09006839  0.52278502     0.27800
H2098       H  0.71376219  0.36957356  0.52027570     0.27800
H2099       H  0.82561183  0.96119718  0.51496123     0.18400
H2100       H  0.71975220  0.49893330  0.52377745     0.18400
C2101       C  0.70712246  0.10486257  0.70291032    -0.07500
C2102       C  0.72164798  0.08106744  0.69129530    -0.18600
C2103       C  0.69510585  0.04159311  0.68324378     0.09700
C2104       C  0.65360621  0.02583117  0.68766609    -0.07400
C2105       C  0.63901913  0.04958253  0.69932865    -0.18600
C2106       C  0.66567567  0.08916347  0.70737770     0.09800
S2107       S  0.71405950  0.01235856  0.66588218    -0.33600
S2108       S  0.64703274  0.11884926  0.72429400    -0.33600
H2109       H  0.60609847  0.08908495  0.72404995     0.27800
H2110       H  0.75444408  0.04329998  0.66409065     0.27800
H2111       H  0.75375079  0.09354929  0.68859175     0.18400
H2112       H  0.60689116  0.03718768  0.70175816     0.18400
C2113       C  0.82585899  0.36102576  0.34703559    -0.07500
C2114       C  0.85083725  0.39168362  0.32834087    -0.18600
C2115       C  0.87899425  0.42983868  0.33753256     0.09700
C2116       C  0.88195548  0.43764798  0.36604038    -0.07400
C2117       C  0.85707475  0.40698611  0.38474374    -0.18600
C2118       C  0.82869688  0.36885145  0.37552115     0.09800
S2119       S  0.91115382  0.46630048  0.31204190    -0.33600
S2120       S  0.79595616  0.33254101  0.40087473    -0.33600
H2121       H  0.76172483  0.31483217  0.38392978     0.27800
H2122       H  0.94559636  0.48416478  0.32876748     0.27800
H2123       H  0.84917750  0.38562012  0.30635152     0.18400
H2124       H  0.85887314  0.41315578  0.40671465     0.18400
C2125       C  0.94623125  0.11000688  0.19082780    -0.07500
C2126       C  0.97610441  0.09963822  0.18653553    -0.18600
C2127       C  0.96584134  0.05992480  0.18094667     0.09700
C2128       C  0.92494663  0.03039252  0.17837263    -0.07400
C2129       C  0.89504208  0.04091971  0.18193900    -0.18600
C2130       C  0.90529582  0.08052395  0.18824690     0.09800
S2131       S  0.00605242  0.04830623  0.17878625    -0.33600
S2132       S  0.86503547  0.09168844  0.19271180    -0.33600
H2133       H  0.88791352  0.13305005  0.18628216     0.27800
H2134       H  0.98310506  0.00807798  0.18794089     0.27800
H2135       H  0.00749053  0.12195155  0.18953832     0.18400
H2136       H  0.86369509  0.01850044  0.17897147     0.18400
C2137       C  0.61357037  0.11557791  0.35884660    -0.07500
C2138       C  0.64412847  0.15526965  0.35396532    -0.18600
C2139       C  0.63494717  0.18560135  0.34923195     0.09700
C2140       C  0.59433289  0.17585216  0.34855753    -0.07400
C2141       C  0.56362246  0.13590329  0.35271996    -0.18600
C2142       C  0.57290344  0.10543910  0.35739553     0.09800
S2143       S  0.67635266  0.23640296  0.34494405    -0.33600
S2144       S  0.53197513  0.05410677  0.36007041    -0.33600
H2145       H  0.55462169  0.03574407  0.35250024     0.27800
H2146       H  0.65603279  0.25564807  0.35563861     0.27800
H2147       H  0.67542848  0.16326994  0.35572231     0.18400
H2148       H  0.53239634  0.12804916  0.35074682     0.18400
C2149       C  0.79135526  0.46207717  0.03274293    -0.07500
C2150       C  0.75206986  0.44838242  0.02397284    -0.18600
C2151       C  0.73934199  0.47574278  0.01752230     0.09700
C2152       C  0.76705310  0.01762142  0.02088857    -0.07400
C2153       C  0.80648104  0.03140872  0.02977782    -0.18600
C2154       C  0.81832228  0.50359771  0.03621757     0.09800
S2155       S  0.68886563  0.45728629  0.00498176    -0.33600
S2156       S  0.86709752  0.02110977  0.05311012    -0.33600
H2157       H  0.87946391  0.56250301  0.05110421     0.27800
H2158       H  0.67784057  0.41622539  0.00348318     0.27800
H2159       H  0.73131064  0.41618985  0.02264075     0.18400
H2160       H  0.82735562  0.06358147  0.03093085     0.18400
C2161       C  0.76277787  0.19596485  0.51535109    -0.07500
C2162       C  0.73332750  0.20681878  0.51984174    -0.18600
C2163       C  0.74425296  0.24669607  0.52546760     0.09700
C2164       C  0.78537720  0.27592761  0.52745348    -0.07400
C2165       C  0.81485017  0.26496081  0.52323245    -0.18600
C2166       C  0.80387110  0.22504490  0.51743127     0.09800
S2167       S  0.70452732  0.25882757  0.52906967    -0.33600
S2168       S  0.84330162  0.21253051  0.51354902    -0.33600
H2169       H  0.82006852  0.17202286  0.52212606     0.27800
H2170       H  0.72756697  0.29912461  0.52012927     0.27800
H2171       H  0.70178150  0.18465852  0.51735807     0.18400
H2172       H  0.84637469  0.28707396  0.52585145     0.18400
C2173       C  0.92438479  0.34239133  0.68169423    -0.07500
C2174       C  0.96216763  0.35800360  0.69384435    -0.18600
C2175       C  0.97653464  0.33252649  0.70172465     0.09700
C2176       C  0.95273640  0.29072378  0.69683163    -0.07400
C2177       C  0.91521335  0.27510979  0.68418467    -0.18600
C2178       C  0.90091323  0.30070404  0.67616823     0.09800
S2179       S  0.02526822  0.35527202  0.71789519    -0.33600
S2180       S  0.85447767  0.27894064  0.65702943    -0.33600
H2181       H  0.84127914  0.30494539  0.66695097     0.27800
H2182       H  0.01653475  0.32373699  0.73657431     0.27800
H2183       H  0.98078318  0.39032686  0.69684022     0.18400
H2184       H  0.89698545  0.24287415  0.68068727     0.18400
C2185       C  0.59279641  0.36298903  0.84581652    -0.07500
C2186       C  0.62957606  0.38168156  0.85964183    -0.18600
C2187       C  0.64596038  0.42124091  0.86870104     0.09700
C2188       C  0.62521286  0.44224642  0.86330045    -0.07400
C2189       C  0.58855078  0.42366158  0.84943582    -0.18600
C2190       C  0.57200002  0.38407767  0.84038075     0.09800
S2191       S  0.69196622  0.44247472  0.88819613    -0.33600
S2192       S  0.52508983  0.36346227  0.82175432    -0.33600
H2193       H  0.51709730  0.32370284  0.81827974     0.27800
H2194       H  0.70795725  0.48168444  0.87735401     0.27800
H2195       H  0.64574227  0.36546450  0.86310666     0.18400
H2196       H  0.57234153  0.43989176  0.84620287     0.18400
C2197       C  0.71571587  0.05205089  0.19587158    -0.07500
C2198       C  0.72995161  0.09049616  0.18463273    -0.18600
C2199       C  0.70316150  0.10325821  0.17689047     0.09700
C2200       C  0.66170316  0.07701247  0.18095894    -0.07400
C2201       C  0.64739411  0.03822971  0.19176577    -0.18600
C2202       C  0.67419946  0.02563866  0.19979254     0.09800
S2203       S  0.72183472  0.15206438  0.16060831    -0.33600
S2204       S  0.65380431  0.97626163  0.21541893    -0.33600
H2205       H  0.68457794  0.98672438  0.23482434     0.27800
H2206       H  0.76296520  0.16418621  0.16195357     0.27800
H2207       H  0.76204578  0.11047712  0.18223001     0.18400
H2208       H  0.61532135  0.01790622  0.19406682     0.18400
C2209       C  0.57100870  0.38372248  0.36759693    -0.07500
C2210       C  0.59636678  0.42323146  0.35845223    -0.18600
C2211       C  0.63541373  0.43537746  0.35006781     0.09700
C2212       C  0.64949690  0.40762749  0.35153218    -0.07400
C2213       C  0.62418488  0.36805085  0.36068434    -0.18600
C2214       C  0.58523193  0.35608834  0.36954403     0.09800
S2215       S  0.66511842  0.48596038  0.33657503    -0.33600
S2216       S  0.55628453  0.30635697  0.38452976    -0.33600
H2217       H  0.53510758  0.31617054  0.40393649     0.27800
H2218       H  0.68119894  0.47521727  0.31407569     0.27800
H2219       H  0.58552683  0.44461658  0.35767331     0.18400
H2220       H  0.63504340  0.34667639  0.36127321     0.18400
C2221       C  0.81670728  0.23767314  0.02334878    -0.07500
C2222       C  0.80658630  0.26797084  0.02650524    -0.18600
C2223       C  0.76702863  0.25813455  0.03137591     0.09700
C2224       C  0.73713509  0.21715950  0.03393535    -0.07400
C2225       C  0.74740104  0.18677389  0.03165423    -0.18600
C2226       C  0.78709438  0.19671763  0.02649437     0.09800
S2227       S  0.75630834  0.29913976  0.03304994    -0.33600
S2228       S  0.79850782  0.15627335  0.02442208    -0.33600
H2229       H  0.83905137  0.17988576  0.03193299     0.27800
H2230       H  0.71686799  0.27694911  0.02288935     0.27800
H2231       H  0.82908840  0.29937870  0.02315501     0.18400
H2232       H  0.72475750  0.15540018  0.03489177     0.18400
C2233       C  0.99684287  0.24768478  0.51361033    -0.07500
C2234       C  0.98176393  0.20812024  0.52304654    -0.18600
C2235       C  0.50823511  0.19520320  0.53193557     0.09700
C2236       C  0.54999014  0.22227971  0.53054093    -0.07400
C2237       C  0.56480825  0.26189046  0.52124456    -0.18600
C2238       C  0.53862136  0.27463548  0.51213164     0.09800
S2239       S  0.98556838  0.14392969  0.54485981    -0.33600
S2240       S  0.56017706  0.32415421  0.49675413    -0.33600
H2241       H  0.53207636  0.31286895  0.47526541     0.27800
H2242       H  0.51684837  0.15078315  0.56368447     0.27800
H2243       H  0.94957460  0.18751892  0.52362273     0.18400
H2244       H  0.59696272  0.28267022  0.52059196     0.18400
C2245       C  0.83989715  0.42147313  0.84221348    -0.07500
C2246       C  0.83212500  0.40446292  0.86857621    -0.18600
C2247       C  0.85453513  0.38795959  0.87876760     0.09700
C2248       C  0.88624421  0.39001245  0.86254573    -0.07400
C2249       C  0.89421444  0.40718919  0.83619821    -0.18600
C2250       C  0.87137995  0.42328474  0.82584538     0.09800
S2251       S  0.84024244  0.36338078  0.91211741    -0.33600
S2252       S  0.88455646  0.44671703  0.79212470    -0.33600
H2253       H  0.87227858  0.47525920  0.79736917     0.27800
H2254       H  0.85092454  0.33383509  0.90608229     0.27800
H2255       H  0.80725267  0.40228883  0.88070585     0.18400
H2256       H  0.91916035  0.40939899  0.82415003     0.18400
C2257       C  0.98478362  0.07616740  0.68783327    -0.07500
C2258       C  0.97413345  0.10588781  0.69222086    -0.18600
C2259       C  0.93450243  0.09506048  0.69806810     0.09700
C2260       C  0.90530883  0.05377523  0.70027455    -0.07400
C2261       C  0.91604731  0.02403758  0.69616005    -0.18600
C2262       C  0.95570028  0.03489937  0.69010524     0.09800
S2263       S  0.92252095  0.13505439  0.70145411    -0.33600
S2264       S  0.46710520  0.99461450  0.68548279    -0.33600
H2265       H  0.50777638  0.01762869  0.69305393     0.27800
H2266       H  0.88329387  0.11256987  0.69094190     0.27800
H2267       H  0.99619728  0.13754575  0.68930259     0.18400
H2268       H  0.89384495  0.99237302  0.69873785     0.18400
C2269       C  0.79589610  0.99942247  0.71414593     0.78900
N2270       N  0.79521118  0.51688344  0.73865942    -0.79400
C2271       C  0.83043435  0.54712327  0.74958737     0.81300
N2272       N  0.86531736  0.55862966  0.73629797    -0.79400
C2273       C  0.86645544  0.54179306  0.71223735     0.81400
N2274       N  0.83218639  0.51190227  0.70124806    -0.81100
C2275       C  0.59146591  0.63387792  0.66790540     0.78900
N2276       N  0.55752671  0.61844244  0.68356675    -0.79400
C2277       C  0.52247183  0.58788447  0.67405902     0.81300
N2278       N  0.52050608  0.57315193  0.64855163    -0.79400
C2279       C  0.55333699  0.58754714  0.63239821     0.81400
N2280       N  0.58939110  0.61839456  0.64190865    -0.81100
C2281       C  0.78010861  0.97032883  0.83186936     0.78900
N2282       N  0.76163721  0.95322485  0.80724760    -0.79400
C2283       C  0.76683505  0.92312791  0.79576868     0.81300
N2284       N  0.79089792  0.91178830  0.80825255    -0.79400
C2285       C  0.80927907  0.92876098  0.83203248     0.81400
N2286       N  0.80363462  0.95750303  0.84402296    -0.81100
C2287       C  0.94150267  0.83543188  0.87807484     0.78900
N2288       N  0.95731066  0.85170450  0.90340713    -0.79400
C2289       C  0.95069646  0.88120746  0.91426202     0.81300
N2290       N  0.92767616  0.89263438  0.90058005    -0.79400
C2291       C  0.91171259  0.87630380  0.87611567     0.81400
N2292       N  0.91891620  0.84829493  0.86466357    -0.81100
C2293       C  0.94366410  0.80305402  0.49894183     0.78900
N2294       N  0.96549926  0.78926197  0.51232667    -0.79400
C2295       C  0.96935723  0.75856688  0.50190108     0.81300
N2296       N  0.95187490  0.74135965  0.47791103    -0.79400
C2297       C  0.92996394  0.75402058  0.46389440     0.81400
N2298       N  0.92593575  0.78557626  0.47415923    -0.81100
C2299       C  0.60679723  0.66988763  0.54470132     0.78900
N2300       N  0.58420752  0.68268944  0.53120191    -0.79400
C2301       C  0.57813754  0.71180408  0.54207010     0.81300
N2302       N  0.59422414  0.72846067  0.56647641    -0.79400
C2303       C  0.61678371  0.71665967  0.58048481     0.81400
N2304       N  0.62291921  0.68665096  0.56989187    -0.81100
C2305       C  0.92306110  0.79780187  0.00190512     0.78900
N2306       N  0.88962726  0.78115653  0.01817217    -0.79400
C2307       C  0.85479464  0.74936881  0.00930242     0.81300
N2308       N  0.85255478  0.73480226  0.98366248    -0.79400
C2309       C  0.88485569  0.75072883  0.96682882     0.81400
N2310       N  0.92058172  0.78258981  0.97581057    -0.81100
C2311       C  0.62764485  0.66493440  0.04596468     0.85500
N2312       N  0.66380225  0.67724398  0.03344317    -0.79400
C2313       C  0.69798780  0.70739523  0.04435938     0.81300
N2314       N  0.69650717  0.72476726  0.06805784    -0.79400
C2315       C  0.66149174  0.71330491  0.08113648     0.81400
N2316       N  0.62641743  0.68278179  0.07034955    -0.81100
C2317       C  0.96217609  0.83282411  0.38081259     0.78900
N2318       N  0.96169692  0.85159225  0.40502826    -0.79400
C2319       C  0.99722979  0.88236601  0.41536703     0.81300
N2320       N  0.53181431  0.89282811  0.40217318    -0.79400
C2321       C  0.53248669  0.87440845  0.37876095     0.81400
N2322       N  0.99801146  0.84437721  0.36819036    -0.81100
C2323       C  0.75668073  0.96474248  0.33367242     0.78900
N2324       N  0.72244787  0.94896898  0.34900178    -0.79400
C2325       C  0.68805229  0.91707429  0.33981733     0.81300
N2326       N  0.68709318  0.90086734  0.31503902    -0.79400
C2327       C  0.72015732  0.91578409  0.29905517     0.81400
N2328       N  0.75547530  0.94831004  0.30811993    -0.81100
C2329       C  0.60964022  0.63340992  0.16542417     0.78900
N2330       N  0.63003346  0.61846931  0.17939591    -0.79400
C2331       C  0.63324142  0.58726230  0.16919666     0.81300
N2332       N  0.61680147  0.57099064  0.14479167    -0.79400
C2333       C  0.59642162  0.58498344  0.13029200     0.81400
N2334       N  0.59295295  0.61683958  0.14032858    -0.81100
C2335       C  0.77270504  0.00066577  0.21100399     0.78900
N2336       N  0.74992378  0.51298999  0.19732499    -0.79400
C2337       C  0.74403428  0.54237258  0.20782909     0.81300
N2338       N  0.76030980  0.55961917  0.23207483    -0.79400
C2339       C  0.78291603  0.54812547  0.24632069     0.81400
N2340       N  0.78888191  0.51773817  0.23605929    -0.81100
C2341       C  0.53962184  0.75418542  0.83249248     0.78900
N2342       N  0.55380234  0.78994704  0.84583602    -0.79400
C2343       C  0.58477855  0.82393809  0.83521523     0.81300
N2344       N  0.60156669  0.82307120  0.81111391    -0.79400
C2345       C  0.58831839  0.78841085  0.79715229     0.81400
N2346       N  0.55676011  0.75329888  0.80759823    -0.81100
C2347       C  0.67499669  0.55068460  0.87869343     0.78900
N2348       N  0.65755520  0.54962730  0.90382021    -0.79400
C2349       C  0.62875401  0.51308934  0.91460556     0.81300
N2350       N  0.61835289  0.97846929  0.90100822    -0.79400
C2351       C  0.63551601  0.97955822  0.87660828     0.81400
N2352       N  0.66375298  0.51543828  0.86533932    -0.81100
C2353       C  0.87424439  0.90148707  0.66654371     0.78900
N2354       N  0.89173025  0.91806673  0.64148520    -0.79400
C2355       C  0.92129239  0.91126774  0.63097486     0.81300
N2356       N  0.93173030  0.88739531  0.64476065    -0.79400
C2357       C  0.91443633  0.87090127  0.66902680     0.81400
N2358       N  0.88618469  0.87807844  0.68007947    -0.81100
C2359       C  0.50905373  0.73914495  0.71314303     0.78900
N2360       N  0.49432298  0.75946812  0.69874719    -0.79400
C2361       C  0.96477239  0.76468570  0.70995514     0.81300
N2362       N  0.94804986  0.74760911  0.73427239    -0.79400
C2363       C  0.96145425  0.72656319  0.74869454     0.81400
N2364       N  0.99306515  0.72287177  0.73854848    -0.81100
C2365       C  0.70582696  0.58798218  0.49859781     0.78900
N2366       N  0.72040749  0.62319765  0.51272473    -0.79400
C2367       C  0.75126470  0.65767282  0.50247617     0.81300
N2368       N  0.76713008  0.65765029  0.47768671    -0.79400
C2369       C  0.75350109  0.62343112  0.46301277     0.81400
N2370       N  0.72232505  0.58799832  0.47328329    -0.81100
C2371       C  0.84124430  0.88507362  0.54458899     0.78900
N2372       N  0.82810013  0.84986945  0.53053211    -0.79400
C2373       C  0.79749355  0.81489395  0.54053989     0.81300
N2374       N  0.78046289  0.81444493  0.56490654    -0.79400
C2375       C  0.79267523  0.84844675  0.57946534     0.81400
N2376       N  0.82363024  0.88435700  0.56956014    -0.81100
C2377       C  0.70950134  0.56803127  0.00226887     0.78900
N2378       N  0.72599932  0.58343773  0.97676665    -0.79400
C2379       C  0.75823299  0.58023840  0.96732263     0.81300
N2380       N  0.77289751  0.56143533  0.98298008    -0.79400
C2381       C  0.75675823  0.54610389  0.00784363     0.81400
N2382       N  0.72504006  0.54903136  0.01734312    -0.81100
C2383       C  0.84263323  0.90356475  0.04549971     0.78900
N2384       N  0.83059548  0.92762176  0.03304706    -0.79400
C2385       C  0.80105559  0.93257908  0.04422867     0.81300
N2386       N  0.78328378  0.91395846  0.06786213    -0.79400
C2387       C  0.79433045  0.89004128  0.08091545     0.81400
N2388       N  0.82475060  0.88488542  0.07006235    -0.81100
C2389       C  0.67451258  0.56997474  0.37892009     0.78900
N2390       N  0.65762868  0.58688575  0.36316369    -0.79400
C2391       C  0.62573835  0.58950380  0.37245509     0.81300
N2392       N  0.61111415  0.57640830  0.39799503    -0.79400
C2393       C  0.62696672  0.55937723  0.41426403     0.81400
N2394       N  0.65913094  0.55606069  0.40489123    -0.81100
C2395       C  0.54002051  0.73059890  0.33267919     0.78900
N2396       N  0.55753184  0.74753048  0.30768185    -0.79400
C2397       C  0.58813752  0.74218498  0.29749052     0.81300
N2398       N  0.60008876  0.72001378  0.31180659    -0.79400
C2399       C  0.58319439  0.70341952  0.33619180     0.81400
N2400       N  0.55290545  0.70811635  0.34647884    -0.81100
C2401       C  0.50559192  0.71703095  0.21048793     0.78900
N2402       N  0.98976822  0.71560686  0.23635495    -0.79400
C2403       C  0.95804203  0.67988925  0.24582529     0.81300
N2404       N  0.94331682  0.64671539  0.22996015    -0.79400
C2405       C  0.95871049  0.64804425  0.20473748     0.81400
N2406       N  0.99013339  0.68282901  0.19527706    -0.81100
C2407       C  0.87044129  0.92063638  0.16457566     0.78900
N2408       N  0.88777975  0.91990304  0.13980631    -0.79400
C2409       C  0.91824748  0.95528169  0.12898282     0.81300
N2410       N  0.93027007  0.99017394  0.14249581    -0.79400
C2411       C  0.91348358  0.99108159  0.16666684     0.81400
N2412       N  0.88336915  0.95658363  0.17757627    -0.81100
C2413       C  0.77284477  0.75180119  0.33285069     0.78900
N2414       N  0.79382397  0.78750526  0.34637295    -0.79400
C2415       C  0.79790389  0.82203482  0.33550033     0.81300
N2416       N  0.78144713  0.82123245  0.31100232    -0.79400
C2417       C  0.76091915  0.78674353  0.29691102     0.81400
N2418       N  0.75665903  0.75142629  0.30751745    -0.81100
C2419       C  0.93471449  0.54733955  0.37955183     0.78900
N2420       N  0.95314307  0.54862847  0.40415962    -0.79400
C2421       C  0.94979626  0.51367095  0.41481650     0.81300
N2422       N  0.92953506  0.97892858  0.40084368    -0.79400
C2423       C  0.91119452  0.97728745  0.37693728     0.81400
N2424       N  0.91282638  0.51128100  0.36665119    -0.81100
C2425       C  0.76855746  0.71535395  0.71330224     0.78900
N2426       N  0.78751511  0.71646791  0.73769661    -0.79400
C2427       C  0.78231026  0.68099048  0.74897356     0.81300
N2428       N  0.75794593  0.64572221  0.73640536    -0.79400
C2429       C  0.73911870  0.64461846  0.71288843     0.81400
N2430       N  0.74423545  0.67906984  0.70136941    -0.81100
C2431       C  0.60406176  0.91890858  0.66888577     0.78900
N2432       N  0.58960682  0.92074547  0.64326364    -0.79400
C2433       C  0.59303921  0.95655201  0.63409246     0.81300
N2434       N  0.61114189  0.98957194  0.65013924    -0.79400
C2435       C  0.62542118  0.98789491  0.67511388     0.81400
N2436       N  0.62229105  0.95300163  0.68431461    -0.81100
C2437       C  0.92081570  0.56365076  0.49809729     0.78900
N2438       N  0.88546263  0.54190502  0.51185932    -0.79400
C2439       C  0.85095022  0.53759476  0.50145207     0.81300
N2440       N  0.85109536  0.55403293  0.47691453    -0.79400
C2441       C  0.88542234  0.57583592  0.46264524     0.81400
N2442       N  0.92093004  0.58073203  0.47302572    -0.81100
C2443       C  0.62538802  0.90077258  0.54332765     0.78900
N2444       N  0.62623381  0.88539469  0.56886363    -0.79400
C2445       C  0.66171925  0.88943372  0.57860172     0.81300
N2446       N  0.69524165  0.90865547  0.56316793    -0.79400
C2447       C  0.69460170  0.92347699  0.53813455     0.81400
N2448       N  0.66005039  0.92015317  0.52840926    -0.81100
C2449       C  0.79413307  0.73612063  0.21025752     0.78900
N2450       N  0.82940310  0.75848579  0.19643314    -0.79400
C2451       C  0.86421894  0.76313975  0.20664819     0.81300
N2452       N  0.86450645  0.74658968  0.23106879    -0.79400
C2453       C  0.83043085  0.72471395  0.24554308     0.81400
N2454       N  0.79466809  0.71942854  0.23534041    -0.81100
C2455       C  0.58862608  0.89788119  0.16575081     0.78900
N2456       N  0.55460180  0.88040448  0.18132451    -0.79400
C2457       C  0.52045078  0.87850741  0.17219138     0.81300
N2458       N  0.51953928  0.89284194  0.14703566    -0.79400
C2459       C  0.55249469  0.91018788  0.13091493     0.81400
N2460       N  0.58763495  0.91282052  0.14007744    -0.81100
C2461       C  0.94002250  0.58530502  0.00092782     0.78900
N2462       N  0.95881990  0.61949054  0.01626301    -0.79400
C2463       C  0.96201035  0.65445481  0.00715085     0.81300
N2464       N  0.94754669  0.65609013  0.98223717    -0.79400
C2465       C  0.92890910  0.62296191  0.96635464     0.81400
N2466       N  0.92512207  0.58705597  0.97550802    -0.81100
C2467       C  0.60235341  0.88082097  0.04646579     0.78900
N2468       N  0.58017079  0.84517616  0.03325022    -0.79400
C2469       C  0.57575171  0.81062751  0.04402378     0.81300
N2470       N  0.59263431  0.81103760  0.06830290    -0.79400
C2471       C  0.61492848  0.84576460  0.08198814     0.81400
N2472       N  0.61978536  0.88130187  0.07131846    -0.81100
C2473       C  0.75575667  0.73157344  0.83149380     0.78900
N2474       N  0.72009920  0.70958478  0.84484980    -0.79400
C2475       C  0.68594472  0.70566054  0.83413342     0.81300
N2476       N  0.68662653  0.72295626  0.80990685    -0.79400
C2477       C  0.72124204  0.74489036  0.79596410     0.81400
N2478       N  0.75646382  0.74921358  0.80650352    -0.81100
C2479       C  0.95930799  0.56935744  0.87870692     0.78900
N2480       N  0.99409210  0.59186042  0.86450759    -0.79400
C2481       C  0.53042189  0.59947865  0.87518428     0.81300
N2482       N  0.53160444  0.58390672  0.89979327    -0.79400
C2483       C  0.99724189  0.56053789  0.91410443     0.81400
N2484       N  0.96082513  0.55367912  0.90398909    -0.81100
O2485       O  0.86876252  0.58838867  0.78678299    -0.81500
O2486       O  0.73353277  0.61503380  0.88585285    -0.83000
O2487       O  0.77375648  0.52999784  0.82624813    -0.80000
O2488       O  0.78512185  0.64235529  0.78637961    -0.78400
O2489       O  0.83262525  0.70950093  0.78358108    -0.80200
O2490       O  0.80234553  0.52206006  0.86553145    -0.81100
O2491       O  0.72680637  0.58081574  0.84548287    -0.82500
O2492       O  0.80193990  0.56940364  0.78413002    -0.82800
Eu2493     Eu  0.79390261  0.60231939  0.82452482     2.39200
O2494       O  0.80854322  0.66560726  0.84062692    -0.90300
O2495       O  0.84442280  0.58907250  0.84077234    -0.93900
C2496       C  0.83336473  0.56892867  0.77538906     1.00800
C2497       C  0.71304151  0.58590768  0.86882957     1.00600
C2498       C  0.78331442  0.50913825  0.84230722     1.00600
C2499       C  0.80106070  0.67798772  0.77481892     0.98400
H2500       H  0.77094621  0.57773914  0.88078176     0.28200
O2501       O  0.79486110  0.60060659  0.87338273    -1.02700
H2502       H  0.85826890  0.65189571  0.78878135     0.28200
O2503       O  0.85812637  0.65192977  0.80871516    -1.05200
O2504       O  0.84415403  0.71170236  0.92892758    -0.82400
O2505       O  0.97951450  0.68990147  0.82632693    -0.82000
O2506       O  0.79811044  0.57989263  0.92931503    -0.80400
O2507       O  0.82017082  0.73663476  0.82571542    -0.83700
O2508       O  0.92090674  0.72518783  0.78619400    -0.81600
O2509       O  0.89512726  0.56472376  0.88631791    -0.80200
O2510       O  0.92920875  0.66373184  0.92875368    -0.81800
O2511       O  0.94463421  0.77539283  0.88559970    -0.83700
O2512       O  0.88354717  0.59578202  0.92974794    -0.80400
O2513       O  0.91797987  0.78314685  0.84527400    -0.83100
O2514       O  0.77525980  0.62528129  0.92995554    -0.78800
O2515       O  0.92953091  0.59188629  0.84589969    -0.78900
O2516       O  0.94053842  0.67739325  0.78409586    -0.78500
O2517       O  0.78303872  0.70676049  0.86473169    -0.82000
O2518       O  0.91174821  0.73323878  0.92946060    -0.81400
O2519       O  0.98631105  0.72672024  0.86532905    -0.79800
Eu2520     Eu  0.80634341  0.66470219  0.88910709     2.39800
Eu2521     Eu  0.90771741  0.63727950  0.82470029     2.39600
Eu2522     Eu  0.84464419  0.58769650  0.88922399     2.38400
Eu2523     Eu  0.87216423  0.71630223  0.82431090     2.39900
Eu2524     Eu  0.92050638  0.70228002  0.88901812     2.39800
O2525       O  0.92012103  0.70103213  0.84061165    -0.94200
O2526       O  0.85691643  0.65148587  0.90405332    -0.93100
C2527       C  0.88009775  0.73146025  0.93971088     1.01000
C2528       C  0.99974980  0.72054726  0.84221932     0.99700
C2529       C  0.77779822  0.59570578  0.94025705     0.99100
C2530       C  0.78955397  0.72659124  0.84167981     1.01100
C2531       C  0.94048218  0.70893334  0.77495202     1.00000
C2532       C  0.92432019  0.57301007  0.86923800     0.98900
C2533       C  0.91334697  0.62759573  0.93968710     0.98900
C2534       C  0.93694570  0.79655699  0.86845876     1.01600
H2535       H  0.93141585  0.63890976  0.88087052     0.28900
O2536       O  0.90858920  0.63977778  0.87344685    -1.06300
H2537       H  0.87012787  0.73886759  0.88050967     0.31000
O2538       O  0.86886849  0.71479507  0.87319772    -1.08900
O2539       O  0.95259984  0.92323790  0.95103112    -0.81500
O2540       O  0.60667914  0.94474224  0.05288076    -0.83000
O2541       O  0.58549850  0.97230550  0.95142639    -0.80000
O2542       O  0.98552572  0.85908391  0.99327960    -0.78400
O2543       O  0.95167940  0.85136268  0.03400536    -0.80200
O2544       O  0.60802802  0.54064238  0.94992723    -0.81100
O2545       O  0.57884634  0.90899500  0.01326491    -0.82500
O2546       O  0.99774089  0.90025132  0.94986450    -0.82800
Eu2547     Eu  0.53651603  0.93226122  0.99014716     2.39200
O2548       O  0.53657271  0.93322772  0.03858847    -0.90300
O2549       O  0.52472999  0.98392247  0.97456030    -0.93900
C2550       C  0.96774467  0.90221052  0.94028383     1.00800
C2551       C  0.59758804  0.91479660  0.03652170     1.00600
C2552       C  0.60656520  0.00846758  0.94064290     1.00600
C2553       C  0.95683337  0.83779742  0.01065032     0.98400
H2554       H  0.61043766  0.99553340  0.99890717     0.28200
O2555       O  0.58647716  0.99464114  0.00591652    -1.02700
H2556       H  0.95029479  0.89735671  0.99854641     0.28200
O2557       O  0.97310874  0.92138394  0.00569486    -1.05200
O2558       O  0.59581887  0.54527364  0.09256353    -0.82400
O2559       O  0.93824050  0.52223435  0.99254723    -0.82000
O2560       O  0.64847955  0.56955882  0.99390213    -0.80400
O2561       O  0.01253893  0.90962266  0.09303902    -0.83700
O2562       O  0.90118109  0.89726656  0.05138853    -0.81600
O2563       O  0.53748770  0.55820523  0.95098924    -0.80200
O2564       O  0.56296010  0.60598240  0.05210673    -0.81800
O2565       O  0.95971558  0.49403997  0.09147723    -0.83700
O2566       O  0.59926286  0.61342561  0.01263666    -0.80400
O2567       O  0.94017043  0.92667313  0.09449050    -0.83100
O2568       O  0.65504841  0.54152986  0.03400021    -0.78800
O2569       O  0.96999222  0.51182224  0.94926384    -0.78900
O2570       O  0.89545592  0.92901094  0.01285872    -0.78500
O2571       O  0.57960261  0.95722323  0.09475921    -0.82000
O2572       O  0.54833377  0.56511111  0.09489419    -0.81400
O2573       O  0.96529231  0.55665079  0.03274849    -0.79800
Eu2574     Eu  0.58715600  0.99720374  0.05449742     2.39800
Eu2575     Eu  0.96120667  0.97187548  0.98952793     2.39600
Eu2576     Eu  0.57543323  0.54739352  0.98993367     2.38400
Eu2577     Eu  0.97344833  0.91887065  0.05438487     2.39900
Eu2578     Eu  0.50946723  0.53385615  0.05406287     2.39800
O2579       O  0.96097422  0.97032324  0.03803530    -0.94200
O2580       O  0.57329357  0.54647238  0.03834149    -0.93100
C2581       C  0.57947379  0.56466477  0.10396220     1.01000
C2582       C  0.94620467  0.55132912  0.00964704     0.99700
C2583       C  0.66925706  0.56132050  0.01104751     0.99100
C2584       C  0.54830075  0.92613125  0.10425707     1.01100
C2585       C  0.88132971  0.90813579  0.03544432     1.00000
C2586       C  0.50171652  0.54292009  0.94003554     0.98900
C2587       C  0.59332376  0.62657326  0.03586449     0.98900
C2588       C  0.93973887  0.95825456  0.10308350     1.01600
H2589       H  0.51204569  0.55826720  0.99827665     0.28900
O2590       O  0.51293716  0.53526771  0.00549502    -1.06300
H2591       H  0.52258283  0.98297463  0.09002056     0.31000
O2592       O  0.52293019  0.98308619  0.07012858    -1.08900
O2593       O  0.92881617  0.71337985  0.42611907    -0.81500
O2594       O  0.76988674  0.68841835  0.32598984    -0.83000
O2595       O  0.89649906  0.77427551  0.38647721    -0.80000
O2596       O  0.79377823  0.66270029  0.42536073    -0.78400
O2597       O  0.77415782  0.59525423  0.42751438    -0.80200
O2598       O  0.93334286  0.78088314  0.34746259    -0.81100
O2599       O  0.79811583  0.72429084  0.36558410    -0.82500
O2600       O  0.88131869  0.73320343  0.42844489    -0.82800
Eu2601     Eu  0.84281693  0.70200812  0.38722303     2.39200
O2602       O  0.79457531  0.63845527  0.37117770    -0.90300
O2603       O  0.90664580  0.71452683  0.37142785    -0.93900
C2604       C  0.91251361  0.73288817  0.43760271     1.00800
C2605       C  0.77835934  0.71802709  0.34266228     1.00600
C2606       C  0.92739921  0.79447704  0.37059533     1.00600
C2607       C  0.77424993  0.62688401  0.43662607     0.98400
H2608       H  0.84474598  0.72601586  0.33088450     0.28200
O2609       O  0.84577151  0.70313693  0.33838055    -1.02700
H2610       H  0.85602173  0.65089663  0.42262314     0.28200
O2611       O  0.85625124  0.65107077  0.40270191    -1.05200
O2612       O  0.78441300  0.59026759  0.28351113    -0.82400
O2613       O  0.93934078  0.61176380  0.38542955    -0.82000
O2614       O  0.86992274  0.72383439  0.28328992    -0.80400
O2615       O  0.73462729  0.56655276  0.38573320    -0.83700
O2616       O  0.84635430  0.57750297  0.42526009    -0.81600
O2617       O  0.98103330  0.73574186  0.32547862    -0.80200
O2618       O  0.91715636  0.63933697  0.28327807    -0.81800
O2619       O  0.81867185  0.52655921  0.32511200    -0.83700
O2620       O  0.94007901  0.70760373  0.28258481    -0.80400
O2621       O  0.78413408  0.51919264  0.36546305    -0.83100
O2622       O  0.80234678  0.67785621  0.28179783    -0.78800
O2623       O  0.98786481  0.70844436  0.36587178    -0.78900
O2624       O  0.91333547  0.62503902  0.42751993    -0.78500
O2625       O  0.72832862  0.59718448  0.34686914    -0.82000
O2626       O  0.83036856  0.56836294  0.28200618    -0.81400
O2627       O  0.90977114  0.57487326  0.34650565    -0.79800
Eu2628     Eu  0.79372575  0.63893875  0.32270446     2.39800
Eu2629     Eu  0.92050010  0.66511115  0.38728804     2.39600
Eu2630     Eu  0.90842070  0.71522086  0.32298896     2.38400
Eu2631     Eu  0.80658824  0.58666555  0.38715466     2.39900
Eu2632     Eu  0.86907065  0.59980063  0.32253572     2.39800
O2633       O  0.86970670  0.60140050  0.37104196    -0.94200
O2634       O  0.85735947  0.65170588  0.30776493    -0.93100
C2635       C  0.79999366  0.56971148  0.27247372     1.01000
C2636       C  0.92940347  0.58115964  0.36945089     0.99700
C2637       C  0.83423787  0.70804637  0.27208226     0.99100
C2638       C  0.71441559  0.57677468  0.36964667     1.01100
C2639       C  0.88192075  0.59354171  0.43652542     1.00000
C2640       C  0.00159347  0.72695729  0.34242335     0.98900
C2641       C  0.93788396  0.67556113  0.27254067     0.98900
C2642       C  0.78978207  0.50535310  0.34228829     1.01600
H2643       H  0.94243801  0.66231124  0.33124057     0.28900
O2644       O  0.91889216  0.66202777  0.33859607    -1.06300
H2645       H  0.78245144  0.56452504  0.33115970     0.31000
O2646       O  0.80534571  0.58824868  0.33841801    -1.08900
O2647       O  0.73079254  0.94089010  0.71976040    -0.81500
O2648       O  0.75105452  0.80818542  0.61662450    -0.83000
O2649       O  0.81461512  0.90567751  0.65896369    -0.80000
O2650       O  0.70173839  0.89012196  0.61649443    -0.78400
O2651       O  0.63413690  0.84420817  0.61572333    -0.80200
O2652       O  0.82221587  0.87939548  0.69959307    -0.81100
O2653       O  0.77307380  0.87623054  0.61536827    -0.82500
O2654       O  0.76652448  0.94885990  0.67991175    -0.82800
Eu2655     Eu  0.74151173  0.88302117  0.65604886     2.39200
O2656       O  0.69073999  0.81914833  0.64139470    -0.90300
O2657       O  0.73973806  0.88157965  0.70438185    -0.93900
C2658       C  0.76116869  0.96157359  0.70357082     1.00800
C2659       C  0.77144598  0.84429278  0.60565729     1.00600
C2660       C  0.83566032  0.89788193  0.67613664     1.00600
C2661       C  0.66585691  0.87404754  0.60555711     0.98400
H2662       H  0.77768322  0.83180919  0.66414411     0.28200
O2663       O  0.75377432  0.83072912  0.67147862    -1.02700
H2664       H  0.67777280  0.89358601  0.66488585     0.28200
O2665       O  0.67909418  0.87084866  0.67219817    -1.05200
O2666       O  0.65406149  0.69465101  0.65955087    -0.82400
O2667       O  0.62843098  0.82747934  0.75941575    -0.82000
O2668       O  0.77461456  0.78050373  0.71855166    -0.80400
O2669       O  0.61848973  0.75825470  0.61777340    -0.83700
O2670       O  0.60365812  0.85658852  0.66029605    -0.81600
O2671       O  0.76380242  0.88199682  0.75828853    -0.80200
O2672       O  0.68244261  0.74651316  0.75855202    -0.81800
O2673       O  0.56919703  0.73515602  0.71955068    -0.83700
O2674       O  0.74928186  0.79435062  0.76079787    -0.80400
O2675       O  0.56162569  0.76401110  0.68021521    -0.83100
O2676       O  0.74579295  0.74392838  0.67939869    -0.78800
O2677       O  0.71652768  0.90200399  0.76140051    -0.78900
O2678       O  0.63116783  0.89132215  0.70032915    -0.78500
O2679       O  0.66426145  0.73609177  0.61598599    -0.82000
O2680       O  0.61995728  0.68717540  0.70013550    -0.81400
O2681       O  0.60901359  0.76012268  0.76178494    -0.79800
Eu2682     Eu  0.70378234  0.76802383  0.65605735     2.39800
Eu2683     Eu  0.67648716  0.86907807  0.72106478     2.39600
Eu2684     Eu  0.75519562  0.83342175  0.72018738     2.38400
Eu2685     Eu  0.62724989  0.80651193  0.65682231     2.39900
Eu2686     Eu  0.64147297  0.75447622  0.72083426     2.39800
O2687       O  0.62821856  0.80559399  0.70525520    -0.94200
O2688       O  0.70460653  0.76945492  0.70445023    -0.93100
C2689       C  0.62532576  0.67352929  0.67685732     1.01000
C2690       C  0.60906945  0.79168239  0.77085003     0.99700
C2691       C  0.76481001  0.74991117  0.70261782     0.99100
C2692       C  0.63393040  0.73770513  0.60663411     1.01100
C2693       C  0.61134812  0.88551864  0.67746462     1.00000
C2694       C  0.74805184  0.90177442  0.76995893     0.98900
C2695       C  0.71799445  0.76271862  0.76982233     0.98900
C2696       C  0.54835810  0.74456181  0.70336453     1.01600
H2697       H  0.69130316  0.81888992  0.75624505     0.28900
O2698       O  0.69109541  0.81892707  0.73630087    -1.06300
H2699       H  0.61718195  0.73208286  0.66510334     0.31000
O2700       O  0.63994642  0.75614280  0.67219076    -1.08900
O2701       O  0.69963598  0.75374673  0.11851063    -0.81500
O2702       O  0.56648730  0.77945298  0.21865312    -0.83000
O2703       O  0.60641921  0.69401263  0.15878007    -0.80000
O2704       O  0.61693999  0.80680935  0.11927872    -0.78400
O2705       O  0.66446996  0.87405535  0.11654486    -0.80200
O2706       O  0.63483824  0.68607059  0.19807642    -0.81100
O2707       O  0.55906846  0.74515436  0.17823741    -0.82500
O2708       O  0.63273746  0.73451272  0.11597614    -0.82800
Eu2709     Eu  0.62598915  0.76652393  0.15696816     2.39200
O2710       O  0.64135216  0.83003213  0.17315898    -0.90300
O2711       O  0.67675257  0.75279067  0.17220960    -0.93900
C2712       C  0.66425760  0.73447998  0.10706293     1.00800
C2713       C  0.54540808  0.75069380  0.20147361     1.00600
C2714       C  0.61549336  0.67292873  0.17505267     1.00600
C2715       C  0.63293006  0.84252086  0.10787588     0.98400
H2716       H  0.60362533  0.74225595  0.21290307     0.28200
O2717       O  0.62756916  0.76511948  0.20558837    -1.02700
H2718       H  0.68994502  0.81659258  0.12110090     0.28200
O2719       O  0.69004868  0.81655824  0.14101095    -1.05200
O2720       O  0.67957740  0.87590511  0.26136572    -0.82400
O2721       O  0.81132242  0.85651245  0.15817352    -0.82000
O2722       O  0.62991194  0.74391378  0.26019437    -0.80400
O2723       O  0.65176424  0.90039725  0.15837139    -0.83700
O2724       O  0.75321943  0.88812159  0.11832771    -0.81600
O2725       O  0.72966533  0.73105799  0.21746221    -0.80200
O2726       O  0.75946677  0.82599806  0.25952747    -0.81800
O2727       O  0.77612380  0.94035076  0.21842050    -0.83700
O2728       O  0.71527671  0.75771850  0.26074888    -0.80400
O2729       O  0.74978495  0.94822553  0.17803446    -0.83100
O2730       O  0.60780355  0.78987552  0.26184456    -0.78800
O2731       O  0.76437889  0.75869310  0.17725880    -0.78900
O2732       O  0.77265181  0.84019093  0.11566107    -0.78500
O2733       O  0.61577588  0.87139671  0.19793330    -0.82000
O2734       O  0.74732686  0.89834928  0.26168592    -0.81400
O2735       O  0.81936941  0.89115671  0.19844189    -0.79800
Eu2736     Eu  0.63953841  0.82926248  0.22156874     2.39800
Eu2737     Eu  0.73996165  0.80205793  0.15642522     2.39600
Eu2738     Eu  0.67748419  0.75207752  0.22063760     2.38400
Eu2739     Eu  0.70463216  0.88109749  0.15658493     2.39900
Eu2740     Eu  0.75307411  0.86706636  0.22071310     2.39800
O2741       O  0.75283763  0.86606114  0.17231255    -0.94200
O2742       O  0.68998137  0.81576170  0.23621165    -0.93100
C2743       C  0.71561289  0.89610882  0.27210017     1.01000
C2744       C  0.83216448  0.88613729  0.17475677     0.99700
C2745       C  0.60941596  0.75944399  0.27131899     0.99100
C2746       C  0.62177349  0.89101667  0.17484884     1.01100
C2747       C  0.77272957  0.87184572  0.10681993     1.00000
C2748       C  0.75926626  0.73990827  0.20059786     0.98900
C2749       C  0.74455653  0.78999048  0.27047983     0.98900
C2750       C  0.76838359  0.96163342  0.20139638     1.01600
H2751       H  0.76416020  0.80438073  0.21216238     0.28900
O2752       O  0.74101817  0.80473276  0.20492553    -1.06300
H2753       H  0.70223704  0.90342429  0.21281479     0.31000
O2754       O  0.70142449  0.87964035  0.20537155    -1.08900
O2755       O  0.01292098  0.54712679  0.59490469    -0.81500
O2756       O  0.64651051  0.52397409  0.49221613    -0.83000
O2757       O  0.59489705  0.49797716  0.59560937    -0.80000
O2758       O  0.61098051  0.61011634  0.55190951    -0.78400
O2759       O  0.58405379  0.61780011  0.51168343    -0.80200
O2760       O  0.54975282  0.92945481  0.59627678    -0.81100
O2761       O  0.65332965  0.56007039  0.53160826    -0.82500
O2762       O  0.58009872  0.56901517  0.59541104    -0.82800
Eu2763     Eu  0.58766925  0.53685302  0.55525708     2.39200
O2764       O  0.58702271  0.53568647  0.50681603    -0.90300
O2765       O  0.52415007  0.98553893  0.57032409    -0.93900
C2766       C  0.54849011  0.56741534  0.60556016     1.00800
C2767       C  0.66685836  0.55411033  0.50846896     1.00600
C2768       C  0.57858050  0.96140680  0.60689098     1.00600
C2769       C  0.60287036  0.63120604  0.53493019     0.98400
H2770       H  0.59851082  0.97307946  0.54726826     0.28200
O2771       O  0.57583711  0.97423091  0.53978953    -1.02700
H2772       H  0.53681025  0.57310801  0.54680144     0.28200
O2773       O  0.53588407  0.54921111  0.53946484    -1.05200
O2774       O  0.53581860  0.92339981  0.45266174    -0.82400
O2775       O  0.90107398  0.94845458  0.55261513    -0.82000
O2776       O  0.56250328  0.89885296  0.55142644    -0.80400
O2777       O  0.58734505  0.56020179  0.45198613    -0.83700
O2778       O  0.98582239  0.56987390  0.49216484    -0.81600
O2779       O  0.96362428  0.91333824  0.59406217    -0.80200
O2780       O  0.93957654  0.86341334  0.49272739    -0.81800
O2781       O  0.95251944  0.97573920  0.45241989    -0.83700
O2782       O  0.96940396  0.85613353  0.53154114    -0.80400
O2783       O  0.99904502  0.54279392  0.44985130    -0.83100
O2784       O  0.59768930  0.92716200  0.51148132    -0.78800
O2785       O  0.94211802  0.95979497  0.59585371    -0.78900
O2786       O  0.94893092  0.53953938  0.53115668    -0.78500
O2787       O  0.60754888  0.51276883  0.45076759    -0.82000
O2788       O  0.96919784  0.90448963  0.45020063    -0.81400
O2789       O  0.89390236  0.91493751  0.51185766    -0.79800
Eu2790     Eu  0.57459243  0.97183484  0.49099960     2.39800
Eu2791     Eu  0.97396882  0.99909449  0.55561223     2.39600
Eu2792     Eu  0.51194988  0.92181072  0.55518924     2.38400
Eu2793     Eu  0.53880628  0.55078150  0.49058895     2.39900
Eu2794     Eu  0.96102828  0.93633166  0.49095596     2.39800
O2795       O  0.97539153  0.99967674  0.50711693    -0.94200
O2796       O  0.51138989  0.92273621  0.50674097    -0.93100
C2797       C  0.50036525  0.90400499  0.44128241     1.01000
C2798       C  0.88024195  0.91975934  0.53531274     0.99700
C2799       C  0.59183306  0.90727346  0.53441406     0.99100
C2800       C  0.60702762  0.54377513  0.44110157     1.01100
C2801       C  0.95502559  0.55920523  0.50809890     1.00000
C2802       C  0.94319884  0.92897920  0.60512411     0.98900
C2803       C  0.94929864  0.84259189  0.50874721     0.98900
C2804       C  0.96851049  0.01130788  0.44082517     1.01600
H2805       H  0.93870223  0.91220765  0.54677544     0.28900
O2806       O  0.96268680  0.93517020  0.53962234    -1.06300
H2807       H  0.52513883  0.98641221  0.45536459     0.31000
O2808       O  0.52491243  0.98635575  0.47523456    -1.08900
C2809       C  0.64724828  0.67787942  0.84579425    -0.07500
C2810       C  0.62604198  0.69410379  0.85904877    -0.18600
C2811       C  0.58650553  0.66915104  0.86748964     0.09700
C2812       C  0.56810301  0.62737633  0.86218364    -0.07400
C2813       C  0.58938756  0.61116853  0.84898018    -0.18600
C2814       C  0.62883206  0.63615328  0.84034289     0.09800
S2815       S  0.56234942  0.69191437  0.88661272    -0.33600
S2816       S  0.65387280  0.61289953  0.82281197    -0.33600
H2817       H  0.67870897  0.64564513  0.80556619     0.27800
H2818       H  0.52347009  0.66658595  0.87654050     0.27800
H2819       H  0.64032980  0.72636904  0.86267737     0.18400
H2820       H  0.57535447  0.57882791  0.84578911     0.18400
C2821       C  0.54789989  0.77189009  0.03230928    -0.07500
C2822       C  0.50758707  0.76189447  0.03026494    -0.18600
C2823       C  0.47807262  0.72243137  0.02458382     0.09700
C2824       C  0.98877278  0.69239876  0.02050685    -0.07400
C2825       C  0.02908759  0.70250670  0.02294893    -0.18600
C2826       C  0.55917776  0.74227573  0.02853743     0.09800
S2827       S  0.42660511  0.71139754  0.02295057    -0.33600
S2828       S  0.61076130  0.75331786  0.02980366    -0.33600
H2829       H  0.62809376  0.79403666  0.02167667     0.27800
H2830       H  0.90824135  0.66951715  0.02902311     0.27800
H2831       H  0.49890254  0.78451394  0.03422547     0.18400
H2832       H  0.03800720  0.68011540  0.01879524     0.18400
C2833       C  0.90277268  0.79147262  0.19456377    -0.07500
C2834       C  0.91210132  0.83174623  0.19160908    -0.18600
C2835       C  0.95155110  0.86198991  0.18664742     0.09700
C2836       C  0.98199366  0.85152790  0.18491952    -0.07400
C2837       C  0.97260446  0.81131793  0.18818564    -0.18600
C2838       C  0.93311007  0.78104774  0.19220338     0.09800
S2839       S  0.96128043  0.91316996  0.18266941    -0.33600
S2840       S  0.92282423  0.72946217  0.19275329    -0.33600
H2841       H  0.88302401  0.71224968  0.18329336     0.27800
H2842       H  0.00193988  0.93213566  0.19044043     0.27800
H2843       H  0.88888489  0.83985203  0.19423819     0.18400
H2844       H  0.99565666  0.80299098  0.18544266     0.18400
C2845       C  0.81235133  0.50991158  0.51374315    -0.07500
C2846       C  0.80312902  0.46988540  0.51779527    -0.18600
C2847       C  0.76329831  0.93981955  0.52331798     0.09700
C2848       C  0.73307745  0.95056207  0.52533016    -0.07400
C2849       C  0.74264637  0.99076451  0.52153888    -0.18600
C2850       C  0.78205054  0.02064618  0.51625817     0.09800
S2851       S  0.75338685  0.88866720  0.52758902    -0.33600
S2852       S  0.79249793  0.07222116  0.51366530    -0.33600
H2853       H  0.83258848  0.59011620  0.52220575     0.27800
H2854       H  0.71262237  0.86960008  0.52011749     0.27800
H2855       H  0.82626495  0.46162085  0.51535986     0.18400
H2856       H  0.71979203  0.99933170  0.52437053     0.18400
C2857       C  0.71008232  0.60559069  0.70214803    -0.07500
C2858       C  0.72446529  0.58131089  0.69116786    -0.18600
C2859       C  0.69775215  0.54197828  0.68294396     0.09700
C2860       C  0.65620476  0.52689825  0.68651633    -0.07400
C2861       C  0.64178488  0.55105316  0.69774137    -0.18600
C2862       C  0.66862342  0.59037841  0.70614164     0.09800
S2863       S  0.71664534  0.51216401  0.66635911    -0.33600
S2864       S  0.65018409  0.62018827  0.72315495    -0.33600
H2865       H  0.60938625  0.59006102  0.72380281     0.27800
H2866       H  0.75730330  0.54258400  0.66529427     0.27800
H2867       H  0.75658220  0.59335029  0.68901394     0.18400
H2868       H  0.60966076  0.53911848  0.69967434     0.18400
C2869       C  0.82599888  0.86138954  0.34688302    -0.07500
C2870       C  0.85063266  0.89203229  0.32805646    -0.18600
C2871       C  0.87950888  0.92997534  0.33714704     0.09700
C2872       C  0.88342326  0.93767555  0.36567044    -0.07400
C2873       C  0.85893436  0.90699656  0.38449997    -0.18600
C2874       C  0.82987507  0.86907517  0.37538984     0.09800
S2875       S  0.91144062  0.96628686  0.31150945    -0.33600
S2876       S  0.79747912  0.83289295  0.40092861    -0.33600
H2877       H  0.76278404  0.81587229  0.38441883     0.27800
H2878       H  0.94619209  0.98375092  0.32794783     0.27800
H2879       H  0.84823682  0.88607989  0.30603604     0.18400
H2880       H  0.86143393  0.91304332  0.40650184     0.18400
C2881       C  0.94664572  0.60988849  0.19107166    -0.07500
C2882       C  0.97651058  0.59957525  0.18657881    -0.18600
C2883       C  0.96622346  0.55990834  0.18080468     0.09700
C2884       C  0.92529498  0.53032730  0.17848456    -0.07400
C2885       C  0.89539047  0.54076502  0.18246010    -0.18600
C2886       C  0.90569863  0.58039104  0.18870969     0.09800
S2887       S  0.00647807  0.54844762  0.17788885    -0.33600
S2888       S  0.86553265  0.59169587  0.19320810    -0.33600
H2889       H  0.88835657  0.63287050  0.18620864     0.27800
H2890       H  0.98389442  0.50832046  0.18731696     0.27800
H2891       H  0.00792114  0.62192969  0.18942351     0.18400
H2892       H  0.86400429  0.51831549  0.17970658     0.18400
C2893       C  0.61383306  0.61562186  0.35874772    -0.07500
C2894       C  0.64423587  0.65535831  0.35380008    -0.18600
C2895       C  0.63479442  0.68548059  0.34894733     0.09700
C2896       C  0.59409589  0.67545860  0.34827094    -0.07400
C2897       C  0.56355834  0.63546703  0.35253358    -0.18600
C2898       C  0.57310141  0.60521839  0.35731499     0.09800
S2899       S  0.67596197  0.73638311  0.34450337    -0.33600
S2900       S  0.53242588  0.55379026  0.36028391    -0.33600
H2901       H  0.55516744  0.53559205  0.35254722     0.27800
H2902       H  0.65551411  0.75543716  0.35530601     0.27800
H2903       H  0.67558619  0.66354590  0.35557275     0.18400
H2904       H  0.53227518  0.62741667  0.35059240     0.18400
C2905       C  0.79168628  0.96228848  0.03376704    -0.07500
C2906       C  0.75227884  0.94858560  0.02530733    -0.18600
C2907       C  0.73957978  0.97593958  0.01882205     0.09700
C2908       C  0.76667607  0.51741933  0.01991197    -0.07400
C2909       C  0.80606438  0.53119395  0.02885054    -0.18600
C2910       C  0.81870851  0.00379540  0.03718946     0.09800
S2911       S  0.68910237  0.95747013  0.00628879    -0.33600
S2912       S  0.86665580  0.52098271  0.05222622    -0.33600
H2913       H  0.87978205  0.06261167  0.05226101     0.27800
H2914       H  0.67657479  0.91602585  0.00763846     0.27800
H2915       H  0.73148956  0.91638945  0.02407289     0.18400
H2916       H  0.82685747  0.56337164  0.03016321     0.18400
C2917       C  0.76351308  0.69638778  0.51533107    -0.07500
C2918       C  0.73394549  0.70713479  0.51961278    -0.18600
C2919       C  0.74465922  0.74688379  0.52547670     0.09700
C2920       C  0.78572114  0.77618671  0.52774784    -0.07400
C2921       C  0.81533486  0.76535031  0.52370149    -0.18600
C2922       C  0.80454764  0.72550382  0.51776839     0.09800
S2923       S  0.70470736  0.75867916  0.52913106    -0.33600
S2924       S  0.84410863  0.71310131  0.51433744    -0.33600
H2925       H  0.82072097  0.67247128  0.52260822     0.27800
H2926       H  0.72751583  0.79895116  0.52009618     0.27800
H2927       H  0.70245727  0.68495283  0.51688986     0.18400
H2928       H  0.84679598  0.78749319  0.52656885     0.18400
C2929       C  0.92453420  0.84280448  0.68146492    -0.07500
C2930       C  0.96218709  0.85906906  0.69395085    -0.18600
C2931       C  0.97672752  0.83405534  0.70259816     0.09700
C2932       C  0.95346504  0.79219491  0.69790960    -0.07400
C2933       C  0.91615276  0.77593593  0.68490949    -0.18600
C2934       C  0.90154535  0.80097785  0.67623142     0.09800
S2935       S  0.02468477  0.85712620  0.71980321    -0.33600
S2936       S  0.85540694  0.77816734  0.65669912    -0.33600
H2937       H  0.84260716  0.80553521  0.66407697     0.27800
H2938       H  0.01347367  0.82693361  0.74006706     0.27800
H2939       H  0.98042620  0.89146741  0.69677780     0.18400
H2940       H  0.89837125  0.74361844  0.68158004     0.18400
C2941       C  0.59640517  0.86287016  0.84673617    -0.07500
C2942       C  0.63442430  0.88412544  0.85871675    -0.18600
C2943       C  0.64920511  0.92364722  0.86743734     0.09700
C2944       C  0.62533958  0.94184058  0.86367495    -0.07400
C2945       C  0.58739698  0.92060483  0.85162902    -0.18600
C2946       C  0.57290325  0.88135959  0.84248913     0.09800
S2947       S  0.69692632  0.94783797  0.88500372    -0.33600
S2948       S  0.52479005  0.85709578  0.82534275    -0.33600
H2949       H  0.53246387  0.83264658  0.80748847     0.27800
H2950       H  0.70956981  0.98702100  0.87529463     0.27800
H2951       H  0.65262568  0.86984201  0.86119372     0.18400
H2952       H  0.56894476  0.93467345  0.84950018     0.18400
C2953       C  0.71516327  0.55149431  0.19592678    -0.07500
C2954       C  0.72965797  0.59013966  0.18494958    -0.18600
C2955       C  0.70306126  0.60307044  0.17703903     0.09700
C2956       C  0.66153393  0.57680924  0.18069341    -0.07400
C2957       C  0.64696492  0.53780045  0.19116001    -0.18600
C2958       C  0.67356538  0.52503842  0.19937309     0.09800
S2959       S  0.72207128  0.65213375  0.16107713    -0.33600
S2960       S  0.65277634  0.47543521  0.21469245    -0.33600
H2961       H  0.68338550  0.48532118  0.23413389     0.27800
H2962       H  0.76309225  0.66372187  0.16203615     0.27800
H2963       H  0.76179930  0.61015726  0.18290436     0.18400
H2964       H  0.61484278  0.51745096  0.19309071     0.18400
C2965       C  0.57129310  0.88361379  0.36782291    -0.07500
C2966       C  0.59661002  0.92296188  0.35834481    -0.18600
C2967       C  0.63571442  0.93504240  0.35012548     0.09700
C2968       C  0.64983423  0.90735655  0.35199535    -0.07400
C2969       C  0.62458919  0.86796510  0.36147294    -0.18600
C2970       C  0.58561576  0.85608741  0.37023499     0.09800
S2971       S  0.66555720  0.98549888  0.33642553    -0.33600
S2972       S  0.55680753  0.80653400  0.38555701    -0.33600
H2973       H  0.53386849  0.81566146  0.40384254     0.27800
H2974       H  0.68123999  0.97434427  0.31390175     0.27800
H2975       H  0.58572128  0.94428658  0.35722355     0.18400
H2976       H  0.63550638  0.84665212  0.36236249     0.18400
C2977       C  0.81707865  0.73786843  0.02342483    -0.07500
C2978       C  0.80734747  0.76839800  0.02689512    -0.18600
C2979       C  0.76781666  0.75891543  0.03145711     0.09700
C2980       C  0.73751580  0.71801783  0.03358476    -0.07400
C2981       C  0.74741625  0.68738296  0.03112988    -0.18600
C2982       C  0.78706763  0.69697155  0.02617248     0.09800
S2983       S  0.75771098  0.80032766  0.03312521    -0.33600
S2984       S  0.79784894  0.65610692  0.02392186    -0.33600
H2985       H  0.83864926  0.67931768  0.03085681     0.27800
H2986       H  0.71815551  0.77854542  0.02312649     0.27800
H2987       H  0.83015158  0.79978829  0.02391114     0.18400
H2988       H  0.72448783  0.65604220  0.03406860     0.18400
C2989       C  0.99742174  0.74789769  0.51354934    -0.07500
C2990       C  0.98225447  0.70839502  0.52316914    -0.18600
C2991       C  0.50814429  0.69510822  0.53166939     0.09700
C2992       C  0.54993403  0.72186819  0.53003136    -0.07400
C2993       C  0.56505475  0.76124742  0.52019235    -0.18600
C2994       C  0.53908251  0.77421818  0.51103033     0.09800
S2995       S  0.98596864  0.64396592  0.54470346    -0.33600
S2996       S  0.56095445  0.82359025  0.49534733    -0.33600
H2997       H  0.53211690  0.81266959  0.47439490     0.27800
H2998       H  0.51649091  0.65101844  0.56389595     0.27800
H2999       H  0.95005245  0.68787310  0.52380917     0.18400
H3000       H  0.59725996  0.78172308  0.51929960     0.18400
C3001       C  0.83704879  0.91741744  0.84340016    -0.07500
C3002       C  0.82902559  0.90036453  0.86978500    -0.18600
C3003       C  0.85141265  0.88388293  0.88013847     0.09700
C3004       C  0.88331433  0.88612228  0.86409030    -0.07400
C3005       C  0.89112024  0.90273675  0.83760827    -0.18600
C3006       C  0.86831203  0.91866246  0.82704974     0.09800
S3007       S  0.83694000  0.85903088  0.91338669    -0.33600
S3008       S  0.88133691  0.94112706  0.79303749    -0.33600
H3009       H  0.87031420  0.97065384  0.79807807     0.27800
H3010       H  0.84786364  0.82968072  0.90724474     0.27800
H3011       H  0.80413549  0.89830650  0.88182396     0.18400
H3012       H  0.91604014  0.90476976  0.82561524     0.18400
C3013       C  0.98507167  0.57590128  0.68799904    -0.07500
C3014       C  0.97466494  0.60573220  0.69267796    -0.18600
C3015       C  0.93508997  0.59508511  0.69851444     0.09700
C3016       C  0.90565535  0.55381750  0.70033843    -0.07400
C3017       C  0.91617941  0.52396233  0.69599585    -0.18600
C3018       C  0.95582228  0.53467140  0.69006637     0.09800
S3019       S  0.92360717  0.63536676  0.70245235    -0.33600
S3020       S  0.46671525  0.49452513  0.68589889    -0.33600
H3021       H  0.50751375  0.51740885  0.69318484     0.27800
H3022       H  0.88421049  0.61336793  0.69216251     0.27800
H3023       H  0.99689286  0.63738838  0.68999452     0.18400
H3024       H  0.89382304  0.49230568  0.69834795     0.18400
loop_ 
_geom_bond_atom_site_label_1 
_geom_bond_atom_site_label_2 
_geom_bond_distance 
_geom_bond_site_symmetry_2 
_ccdc_geom_bond_type 
C1          C390   1.489       .  S
C1          N758   1.377       .  A
C1          N762   1.360       .  A
N2            C3   1.375       .  A
N2          C757   1.377   1_545  A
C3          C228   1.472       .  S
C3            N4   1.342       .  A
N4            C5   1.340       .  A
C5          C748   1.450       .  S
C5            N6   1.351       .  A
N6          C757   1.359   1_545  A
C7          C421   1.488       .  S
C7            N8   1.358       .  A
C7           N12   1.376       .  A
N8            C9   1.351       .  A
C9         C2257   1.447   1_455  S
C9           N10   1.343       .  A
N10          C11   1.341       .  A
C11         C498   1.474       .  S
C11          N12   1.377       .  A
C13         C986   1.487       .  S
C13          N14   1.377       .  A
C13          N18   1.358       .  A
N14          C15   1.376       .  A
C15         C426   1.472       .  S
C15          N16   1.343       .  A
N16          C17   1.339       .  A
C17         C733   1.445       .  S
C17          N18   1.350       .  A
C19         C266   1.480       .  S
C19          N20   1.374       .  A
C19          N24   1.357       .  A
N20          C21   1.374       .  A
C21         C282   1.466       .  S
C21          N22   1.340       .  A
N22          C23   1.340       .  A
C23         C736   1.442       .  S
C23          N24   1.348       .  A
C25         C535   1.491       .  S
C25          N26   1.356       .  A
C25          N30   1.379       .  A
N26          C27   1.349       .  A
C27         C721   1.444       .  S
C27          N28   1.342       .  A
N28          C29   1.345       .  A
C29         C336   1.481       .  S
C29          N30   1.380       .  A
C31         C501   1.484       .  S
C31          N32   1.357       .  A
C31          N36   1.375       .  A
N32          C33   1.349       .  A
C33         C724   1.441       .  S
C33          N34   1.340       .  A
N34          C35   1.343       .  A
C35         C424   1.470       .  S
C35          N36   1.376       .  A
C37         C285   1.491       .  S
C37          N38   1.359       .  A
C37          N42   1.374   1_554  A
N38          C39   1.354       .  A
C39         C709   1.452       .  S
C39          N40   1.345   1_554  A
N40          C41   1.345       .  A
C41         C259   1.472       .  S
C41          N42   1.375       .  A
C43         C319   1.482       .  S
C43          N44   1.361       .  A
C43          N48   1.374       .  A
N44          C45   1.351       .  A
C45         C712   1.453       .  S
C45          N46   1.339       .  A
N46          C47   1.342       .  A
C47         C444   1.467       .  S
C47          N48   1.373       .  A
C49         C338   1.493       .  S
C49          N50   1.378       .  A
C49          N54   1.358       .  A
N50          C51   1.379       .  A
C51        C2041   1.475       .  S
C51        N1564   1.344       .  A
N52          C53   1.340       .  A
N52        C1563   1.344   1_455  A
C53         C697   1.445       .  S
C53        N1566   1.350   1_455  A
N54        C1565   1.350       .  A
C55        C1130   1.492       .  S
C55          N56   1.356       .  A
C55          N60   1.377       .  A
N56          C57   1.351       .  A
C57         C700   1.442       .  S
C57          N58   1.341       .  A
N58          C59   1.342       .  A
C59         C475   1.472       .  S
C59          N60   1.378       .  A
C61         C446   1.485       .  S
C61          N62   1.357       .  A
C61          N66   1.375       .  A
N62          C63   1.349       .  A
C63         C688   1.443       .  S
C63          N64   1.340       .  A
N64          C65   1.345       .  A
C65         C313   1.468       .  S
C65          N66   1.375       .  A
C67         C482   1.489       .  S
C67         N824   1.355       .  A
C67         N828   1.378       .  A
N68          C69   1.348       .  A
N68         C823   1.355       .  A
C69         C685   1.438       .  S
C69          N70   1.341       .  A
N70          C71   1.342       .  A
C71         C367   1.476       .  S
C71          N72   1.380       .  A
N72         C823   1.378       .  A
C73        C1772   1.489       .  S
C73          N74   1.356       .  A
C73          N78   1.379       .  A
N74          C75   1.348       .  A
C75         C673   1.438       .  S
C75          N76   1.339       .  A
N76          C77   1.342       .  A
C77         C422   1.475       .  S
C77          N78   1.378       .  A
C79         C229   1.485       .  S
C79          N80   1.376       .  A
C79          N84   1.356       .  A
N80          C81   1.377       .  A
C81        C1040   1.468       .  S
C81         N838   1.340   1_545  A
N82          C83   1.340       .  A
N82         C837   1.341       .  A
C83         C676   1.435       .  S
C83         N840   1.348       .  A
N84         C839   1.348   1_545  A
C85         C392   1.488       .  S
C85          N86   1.375       .  A
C85          N90   1.358       .  A
N86          C87   1.377       .  A
C87         C534   1.470       .  S
C87          N88   1.342       .  A
N88          C89   1.340       .  A
C89         C661   1.444       .  S
C89          N90   1.350       .  A
C91         C428   1.489       .  S
C91          N92   1.358   1_455  A
C91        N1608   1.376   1_455  A
N92        C1605   1.350       .  A
C93         C664   1.445       .  S
C93          N94   1.341       .  A
C93        N1604   1.350       .  A
N94          C95   1.345       .  A
C95         C263   1.474       .  S
C95          N96   1.377       .  A
N96        C1603   1.377       .  A
C97         C499   1.483       .  S
C97          N98   1.357       .  A
C97         N102   1.376       .  A
N98          C99   1.350       .  A
C99         C649   1.449       .  S
C99         N100   1.343       .  A
N100        C101   1.344       .  A
C101        C339   1.472       .  S
C101        N102   1.375       .  A
C103        C530   1.488       .  S
C103        N104   1.360       .  A
C103        N108   1.375       .  A
N104        C105   1.352       .  A
C105        C652   1.451       .  S
C105        N106   1.341       .  A
N106        C107   1.340       .  A
C107        C391   1.468       .  S
C107        N108   1.376       .  A
C109        C315   1.494       .  S
C109        N110   1.375   1_554  A
C109        N114   1.358       .  A
N110        C111   1.377       .  A
C111        C261   1.476       .  S
C111        N112   1.345       .  A
N112        C113   1.344   1_556  A
C113        C640   1.449       .  S
C113        N114   1.354       .  A
C115        C317   1.483       .  S
C115        N116   1.357       .  A
C115        N120   1.376       .  A
N116        C117   1.348       .  A
C117        C637   1.441       .  S
C117        N118   1.338       .  A
N118        C119   1.341       .  A
C119        C479   1.468       .  S
C119        N120   1.376       .  A
C121        C370   1.486       .  S
C121        N122   1.355       .  A
C121        N126   1.375       .  A
N122        C123   1.350       .  A
C123        C625   1.447       .  S
C123        N124   1.344       .  A
N124        C125   1.344       .  A
C125        C532   1.470       .  S
C125        N126   1.375       .  A
C127       C1884   1.492       .  S
C127        N128   1.376       .  A
C127        N132   1.359       .  A
N128        C129   1.377       .  A
C129        C477   1.472       .  S
C129        N130   1.339       .  A
N130        C131   1.341       .  A
C131        C628   1.448       .  S
C131        N132   1.352       .  A
C133        C445   1.488       .  S
C133       N1646   1.374   1_455  A
C133       N1650   1.358   1_455  A
N134        C135   1.376       .  A
N134       C1645   1.375       .  A
C135        C373   1.471       .  S
C135        N136   1.343       .  A
N136        C137   1.344       .  A
C137        C613   1.452       .  S
C137        N138   1.352       .  A
N138       C1645   1.358       .  A
C139        C476   1.484       .  S
C139        N140   1.375       .  A
C139        N144   1.360       .  A
N140        C141   1.374       .  A
C141        C320   1.470       .  S
C141        N142   1.343       .  A
N142        C143   1.341       .  A
C143       C1372   1.453       .  S
C143        N144   1.352       .  A
C145        C337   1.482       .  S
C145        N146   1.359       .  A
C145        N150   1.374       .  A
N146        C147   1.352       .  A
C147        C601   1.455       .  S
C147        N148   1.339       .  A
N148        C149   1.338       .  A
C149        C481   1.461       .  S
C149        N150   1.373       .  A
C151        C368   1.485       .  S
C151        N152   1.376       .  A
C151        N156   1.357       .  A
N152        C153   1.375       .  A
C153       C1292   1.473       .  S
C153        N910   1.344   1_545  A
N154        C155   1.342       .  A
N154        C909   1.344       .  A
C155        C604   1.455       .  S
C155        N912   1.352       .  A
N156        C911   1.351   1_545  A
C157        C423   1.486       .  S
C157        N158   1.378       .  A
C157        N162   1.357       .  A
N158        C159   1.378       .  A
C159        C231   1.479       .  S
C159        N160   1.345       .  A
N160        C161   1.340       .  A
C161        C589   1.445       .  S
C161        N162   1.348       .  A
C163        C425   1.491       .  S
C163        N164   1.376       .  A
C163        N168   1.356       .  A
N164        C165   1.378       .  A
C165        C500   1.476       .  S
C165        N166   1.344       .  A
N166        C167   1.343       .  A
C167       C1348   1.443       .  S
C167        N168   1.350       .  A
C169        C533   1.485       .  S
C169        N170   1.357       .  A
C169        N174   1.376       .  A
N170        C171   1.349       .  A
C171        C577   1.447       .  S
C171        N172   1.341       .  A
N172        C173   1.343       .  A
C173        C371   1.470       .  S
C173        N174   1.376       .  A
C175        C531   1.493       .  S
C175        N176   1.376       .  A
C175        N180   1.359       .  A
N176        C177   1.377       .  A
C177        C393   1.474       .  S
C177        N178   1.343       .  A
N178        C179   1.343       .  A
C179        C580   1.452       .  S
C179        N180   1.354       .  A
C181        C480   1.492       .  S
C181        N182   1.359       .  A
C181        N186   1.376       .  A
N182        C183   1.352       .  A
C183        C565   1.449       .  S
C183        N184   1.342       .  A
N184        C185   1.342       .  A
C185        C369   1.473       .  S
C185        N186   1.377       .  A
C187        C478   1.488       .  S
C187        N188   1.356       .  A
C187        N192   1.376       .  A
N188        C189   1.351       .  A
C189       C2080   1.447   1_455  S
C189        N190   1.342       .  A
N190        C191   1.343       .  A
C191        C316   1.470       .  S
C191        N192   1.376       .  A
C193        C314   1.489       .  S
C193        N194   1.356       .  A
C193        N198   1.374   1_554  A
N194        C195   1.350       .  A
C195        C556   1.447       .  S
C195        N196   1.344   1_554  A
N196        C197   1.344       .  A
C197        C265   1.471       .  S
C197        N198   1.376       .  A
C199        C283   1.478       .  S
C199        N200   1.355       .  A
C199        N204   1.375       .  A
N200        C201   1.347       .  A
C201        C553   1.442       .  S
C201        N202   1.340       .  A
N202        C203   1.343       .  A
C203        C447   1.470       .  S
C203        N204   1.374       .  A
C205        C262   1.487       .  S
C205        N206   1.356       .  A
C205        N210   1.378       .  A
N206        C207   1.347       .  A
C207        C541   1.438       .  S
C207        N208   1.339       .  A
N208        C209   1.343       .  A
C209        C427   1.474       .  S
C209        N210   1.378       .  A
C211        C264   1.491       .  S
C211        N212   1.356       .  A
C211        N216   1.376       .  A
N212       C1725   1.349       .  A
C213        C544   1.441       .  S
C213        N214   1.342       .  A
C213       N1724   1.350   1_455  A
N214       C1727   1.344   1_455  A
C215       C1830   1.475       .  S
C215        N216   1.379       .  A
C215       N1726   1.344       .  A
O217        C228   1.304       .  A
O217       Eu253   2.515       .  S
O218        C229   1.292       .  A
O218       Eu252   2.483       .  S
O219        C230   1.291       .  A
O219       Eu225   2.474       .  S
O220        C231   1.305       .  A
O220       Eu225   2.521       .  S
O221        C231   1.284       .  A
O221       Eu255   2.430       .  S
O222        C230   1.299       .  A
O222       Eu254   2.487       .  S
O223        C229   1.299       .  A
O223       Eu225   2.486       .  S
O224        C228   1.283       .  A
O224       Eu225   2.419       .  S
Eu225       O235   2.364       .  S
Eu225       O227   2.368       .  S
Eu225       O226   2.328       .  S
Eu225       O233   2.365       .  S
O226       Eu255   2.369       .  S
O226       Eu252   2.348       .  S
O227       Eu253   2.329       .  S
O227       Eu254   2.344       .  S
C230        C769   1.486   1_545  S
H232        O233   0.965       .  S
O233       Eu254   2.331       .  S
O233       Eu252   2.384       .  S
H234        O235   0.965       .  S
O235       Eu253   2.368       .  S
O235       Eu255   2.362       .  S
O236        C259   1.309       .  A
O236       Eu252   2.543       .  S
O237        C260   1.290       .  A
O237       Eu253   2.474       .  S
O238        C261   1.309       .  A
O238       Eu254   2.544       .  S
O239        C262   1.290       .  A
O239       Eu255   2.471       .  S
O240        C263   1.305       .  A
O240       Eu255   2.522       .  S
O241        C264   1.294       .  A
O241       Eu254   2.495       .  S
O242        C265   1.309       .  A
O242       Eu256   2.542       .  S
O243        C266   1.291       .  A
O243       Eu256   2.471       .  S
O244        C265   1.279       .  A
O244       Eu254   2.396       .  S
O245        C266   1.298       .  A
O245       Eu255   2.484       .  S
O246        C261   1.281       .  A
O246       Eu252   2.407       .  S
O247        C264   1.300       .  A
O247       Eu253   2.490       .  S
O248        C263   1.283       .  A
O248       Eu253   2.419       .  S
O249        C262   1.300       .  A
O249       Eu252   2.492       .  S
O250        C259   1.279       .  A
O250       Eu256   2.395       .  S
O251        C260   1.299       .  A
O251       Eu256   2.490       .  S
Eu252       O270   2.328       .  S
Eu252       O258   2.350       .  S
Eu253       O257   2.364       .  S
Eu253       O268   2.361       .  S
Eu254       O268   2.383       .  S
Eu254       O258   2.349       .  S
Eu255       O257   2.330       .  S
Eu255       O270   2.368       .  S
Eu256       O257   2.343       .  S
Eu256       O268   2.320       .  S
Eu256       O270   2.383       .  S
Eu256       O258   2.348       .  S
C260       C1585   1.488       .  S
H267        O268   0.963       .  S
H269        O270   0.963       .  S
O271        C282   1.308       .  A
O271       Eu307   2.538       .  S
O272        C283   1.288       .  A
O272       Eu306   2.462       .  S
O273        C284   1.311       .  A
O273       Eu279   2.550       .  S
O274        C285   1.295   1_556  A
O274      Eu1791   2.500       .  S
O275        C285   1.298       .  A
O275       Eu309   2.485       .  S
O276       C1040   1.277       .  A
O276       Eu308   2.379       .  S
O277        C283   1.297       .  A
O277       Eu279   2.476   1_554  S
O278        C282   1.278       .  A
O278      Eu1791   2.386       .  S
Eu279      O1786   2.499   1_455  S
Eu279      O1790   2.387   1_455  S
Eu279       O281   2.353       .  S
Eu279       O280   2.345   1_556  S
Eu279       O287   2.325   1_556  S
Eu279      O1801   2.378   1_456  S
O280       Eu306   2.370       .  S
O280      Eu1821   2.328   1_455  S
O281      Eu1819   2.353   1_455  S
O281      Eu1064   2.357       .  S
C284        C837   1.470       .  S
C284       O1032   1.277       .  A
H286        O287   0.962   1_556  S
O287       Eu306   2.355       .  S
O287      Eu1064   2.378   1_554  S
H288        O289   0.965   1_556  S
O289       Eu307   2.324   1_554  S
O289       Eu309   2.359       .  S
O289      Eu1791   2.376   1_554  S
O290        C313   1.304       .  A
O290      Eu1062   2.518   1_545  S
O291        C314   1.294   1_556  A
O291      Eu1063   2.491   1_545  S
O292        C315   1.295   1_556  A
O292       Eu308   2.500       .  S
O293       C1828   1.307       .  A
O293       Eu309   2.534       .  S
O294        C317   1.290       .  A
O294       Eu309   2.471       .  S
O295        C318   1.309       .  A
O295       Eu308   2.541       .  S
O296        C319   1.293       .  A
O296       Eu310   2.482       .  S
O297       C1076   1.304       .  A
O297      Eu1822   2.516   1_565  S
O298        C319   1.295       .  A
O298       Eu308   2.466   1_554  S
O299        C320   1.282       .  A
O299       Eu309   2.415       .  S
O300        C315   1.299       .  A
O300      Eu1062   2.489   1_545  S
O301       C1830   1.280       .  A
O301      Eu1063   2.400   1_545  S
O302        C317   1.298       .  A
O302       Eu307   2.482   1_554  S
O303        C316   1.280       .  A
O303       Eu306   2.401       .  S
O304        C313   1.282       .  A
O304       Eu310   2.412       .  S
O305        C314   1.299       .  A
O305      Eu1822   2.488       .  S
Eu306      O1046   2.518       .  S
Eu306      O1056   2.486       .  S
Eu306       O324   2.363       .  S
Eu306      O1068   2.325       .  S
Eu307      O1047   2.496       .  S
Eu307      O1057   2.399       .  S
Eu307       O311   2.348   1_556  S
Eu307      O1793   2.354       .  S
Eu307      O2590   2.377   1_556  S
Eu308       O322   2.323   1_556  S
Eu308       O312   2.344   1_556  S
Eu308      O1037   2.358   1_545  S
Eu308      O1043   2.376   1_546  S
Eu309       O311   2.375       .  S
Eu309      O1792   2.328       .  S
Eu309      O1836   2.360       .  S
Eu310      O1809   2.516   1_445  S
Eu310      O1817   2.489   1_455  S
Eu310       O322   2.351       .  S
Eu310       O312   2.368       .  S
Eu310      O2579   2.331   1_445  S
Eu310      O1080   2.364   1_545  S
O311      Eu2578   2.332       .  S
O312      Eu1062   2.326   1_545  S
C316       O1805   1.307       .  A
C318       C1727   1.475   1_455  S
C318       O1813   1.281   1_455  A
C320       O1053   1.304       .  A
H321        O322   0.960   1_556  S
O322      Eu2575   2.375   1_444  S
H323        O324   0.963       .  S
O324      Eu1821   2.361   1_455  S
O324      Eu1066   2.364       .  S
O325        C336   1.309       .  A
O325       Eu361   2.542       .  S
O326        C337   1.292       .  A
O326       Eu360   2.475       .  S
O327        C338   1.293       .  A
O327       Eu333   2.488       .  S
O328        C339   1.305       .  A
O328       Eu333   2.519       .  S
O329        C339   1.283       .  A
O329       Eu363   2.421       .  S
O330        C338   1.300       .  A
O330       Eu362   2.496       .  S
O331        C337   1.299       .  A
O331       Eu333   2.491       .  S
O332        C336   1.283       .  A
O332       Eu333   2.421       .  S
Eu333       O343   2.365       .  S
Eu333       O335   2.370       .  S
Eu333       O334   2.336       .  S
Eu333       O341   2.366       .  S
O334       Eu363   2.369       .  S
O334       Eu360   2.346       .  S
O335       Eu361   2.327       .  S
O335       Eu362   2.345       .  S
H340        O341   0.964       .  S
O341       Eu362   2.327       .  S
O341       Eu360   2.390       .  S
H342        O343   0.964       .  S
O343       Eu361   2.362       .  S
O343       Eu363   2.365       .  S
O344        C367   1.311       .  A
O344       Eu360   2.552       .  S
O345        C368   1.291       .  A
O345       Eu361   2.475       .  S
O346        C369   1.310       .  A
O346       Eu362   2.547       .  S
O347        C370   1.290       .  A
O347       Eu363   2.470       .  S
O348        C371   1.307       .  A
O348       Eu363   2.531       .  S
O349        C372   1.294       .  A
O349       Eu362   2.493       .  S
O350        C373   1.310       .  A
O350       Eu364   2.548       .  S
O351        C374   1.293       .  A
O351       Eu364   2.488       .  S
O352        C373   1.279       .  A
O352       Eu362   2.390       .  S
O353        C374   1.302       .  A
O353       Eu363   2.505       .  S
O354        C369   1.280       .  A
O354       Eu360   2.397       .  S
O355        C372   1.299       .  A
O355       Eu361   2.492       .  S
O356        C371   1.280       .  A
O356       Eu361   2.403       .  S
O357        C370   1.299       .  A
O357       Eu360   2.489       .  S
O358        C367   1.279       .  A
O358       Eu364   2.396       .  S
O359        C368   1.299       .  A
O359       Eu364   2.486       .  S
Eu360       O378   2.319       .  S
Eu360       O366   2.347       .  S
Eu361       O365   2.372       .  S
Eu361       O376   2.360       .  S
Eu362       O376   2.379       .  S
Eu362       O366   2.354       .  S
Eu363       O365   2.326       .  S
Eu363       O378   2.362       .  S
Eu364       O365   2.348       .  S
Eu364       O376   2.323       .  S
Eu364       O378   2.381       .  S
Eu364       O366   2.349       .  S
C372       C1639   1.491       .  S
C374        C811   1.494   1_545  S
H375        O376   0.964       .  S
H377        O378   0.962       .  S
O379        C390   1.293       .  A
O379       Eu415   2.488       .  S
O380        C391   1.310       .  A
O380       Eu414   2.546       .  S
O381        C392   1.294       .  A
O381       Eu387   2.492       .  S
O382        C393   1.310       .  A
O382       Eu387   2.551       .  S
O383        C393   1.279       .  A
O383       Eu417   2.396       .  S
O384        C392   1.298       .  A
O384       Eu416   2.486       .  S
O385        C391   1.278       .  A
O385       Eu387   2.386       .  S
O386        C390   1.298       .  A
O386       Eu387   2.485       .  S
Eu387       O397   2.330       .  S
Eu387       O389   2.340       .  S
Eu387       O388   2.351       .  S
Eu387       O395   2.385       .  S
O388       Eu417   2.350       .  S
O388       Eu414   2.349       .  S
O389       Eu415   2.365       .  S
O389       Eu416   2.321       .  S
H394        O395   0.963       .  S
O395       Eu416   2.360       .  S
O395       Eu414   2.325       .  S
H396        O397   0.961       .  S
O397       Eu415   2.368       .  S
O397       Eu417   2.385       .  S
O398        C421   1.293       .  A
O398       Eu414   2.486       .  S
O399        C422   1.308       .  A
O399       Eu415   2.539       .  S
O400        C423   1.290       .  A
O400       Eu416   2.474       .  S
O401        C424   1.308       .  A
O401       Eu417   2.540       .  S
O402        C425   1.293       .  A
O402       Eu417   2.489       .  S
O403        C426   1.305       .  A
O403       Eu416   2.521       .  S
O404        C427   1.307       .  A
O404       Eu418   2.531       .  S
O405        C428   1.293       .  A
O405       Eu418   2.487       .  S
O406        C427   1.282       .  A
O406       Eu416   2.410       .  S
O407        C428   1.297       .  A
O407       Eu417   2.481       .  S
O408        C423   1.299       .  A
O408       Eu414   2.486       .  S
O409        C426   1.283       .  A
O409       Eu415   2.416       .  S
O410        C425   1.300       .  A
O410       Eu415   2.493       .  S
O411        C424   1.279       .  A
O411       Eu414   2.396       .  S
O412        C421   1.299       .  A
O412       Eu418   2.487       .  S
O413        C422   1.281       .  A
O413       Eu418   2.408       .  S
Eu414       O432   2.383       .  S
Eu414       O420   2.342       .  S
Eu415       O419   2.332       .  S
Eu415       O430   2.365       .  S
Eu416       O430   2.364       .  S
Eu416       O420   2.366       .  S
Eu417       O419   2.348       .  S
Eu417       O432   2.328       .  S
Eu418       O419   2.371       .  S
Eu418       O430   2.364       .  S
Eu418       O432   2.360       .  S
Eu418       O420   2.327       .  S
H429        O430   0.966       .  S
H431        O432   0.964       .  S
O433        C444   1.305       .  A
O433       Eu469   2.519       .  S
O434        C445   1.293       .  A
O434       Eu468   2.486       .  S
O435        C446   1.292       .  A
O435       Eu441   2.482       .  S
O436        C447   1.305       .  A
O436       Eu441   2.520       .  S
O437        C447   1.282       .  A
O437       Eu471   2.414       .  S
O438        C446   1.296       .  A
O438       Eu470   2.474       .  S
O439        C445   1.299       .  A
O439       Eu441   2.491       .  S
O440        C444   1.281       .  A
O440       Eu441   2.409       .  S
Eu441       O451   2.365       .  S
Eu441       O443   2.374       .  S
Eu441       O442   2.327       .  S
Eu441       O449   2.354       .  S
O442       Eu471   2.367       .  S
O442       Eu468   2.343       .  S
O443       Eu469   2.334       .  S
O443       Eu470   2.345       .  S
H448        O449   0.964       .  S
O449       Eu470   2.322       .  S
O449       Eu468   2.383       .  S
H450        O451   0.964       .  S
O451       Eu469   2.364       .  S
O451       Eu471   2.361       .  S
O452        C475   1.311       .  A
O452       Eu468   2.554       .  S
O453        C476   1.292       .  A
O453       Eu469   2.482       .  S
O454        C477   1.311       .  A
O454       Eu470   2.550       .  S
O455        C478   1.291       .  A
O455       Eu471   2.476       .  S
O456        C479   1.308       .  A
O456       Eu471   2.535       .  S
O457        C480   1.295       .  A
O457       Eu470   2.503       .  S
O458        C481   1.308       .  A
O458       Eu472   2.537       .  S
O459        C482   1.292       .  A
O459       Eu472   2.482       .  S
O460        C481   1.276       .  A
O460       Eu470   2.374       .  S
O461        C482   1.301       .  A
O461       Eu471   2.498       .  S
O462        C477   1.278       .  A
O462       Eu468   2.389       .  S
O463        C480   1.298       .  A
O463       Eu469   2.485       .  S
O464        C479   1.280       .  A
O464       Eu469   2.396       .  S
O465        C478   1.299       .  A
O465       Eu468   2.490       .  S
O466        C475   1.277       .  A
O466       Eu472   2.383       .  S
O467        C476   1.296       .  A
O467       Eu472   2.473       .  S
Eu468       O486   2.321       .  S
Eu468       O474   2.349       .  S
Eu469       O473   2.367       .  S
Eu469       O484   2.349       .  S
Eu470       O484   2.379       .  S
Eu470       O474   2.355       .  S
Eu471       O473   2.323       .  S
Eu471       O486   2.363       .  S
Eu472       O473   2.345       .  S
Eu472       O484   2.316       .  S
Eu472       O486   2.379       .  S
Eu472       O474   2.350       .  S
H483        O484   0.961       .  S
H485        O486   0.962       .  S
O487       C2010   1.312       .  A
O487      Eu1279   2.558   1_545  S
O488        C499   1.289       .  A
O488      Eu1278   2.465   1_545  S
O489       C1256   1.311       .  A
O489       Eu495   2.553   1_565  S
O490        C501   1.293       .  A
O490       Eu495   2.483       .  S
O491        C501   1.299       .  A
O491       Eu525   2.487       .  S
O492        C500   1.280       .  A
O492       Eu524   2.397       .  S
O493        C499   1.298       .  A
O493       Eu495   2.486       .  S
O494        C498   1.278       .  A
O494       Eu495   2.388       .  S
Eu495       O505   2.386       .  S
Eu495       O496   2.344       .  S
Eu495      O1253   2.348   1_545  S
Eu495      O1259   2.324   1_545  S
O496       Eu525   2.332       .  S
O496      Eu1278   2.366   1_545  S
O497       Eu524   2.354       .  S
O497      Eu1251   2.348       .  S
O497      Eu2035   2.351   1_455  S
C498       O1999   1.312       .  A
C500       O1245   1.311       .  A
H502        O503   0.964       .  S
O503       Eu524   2.380       .  S
O503       Eu522   2.361       .  S
O503      Eu1251   2.322       .  S
H504        O505   0.962       .  S
O505       Eu525   2.366       .  S
O505      Eu2791   2.320   1_445  S
O506        C529   1.306       .  A
O506       Eu522   2.521       .  S
O507        C530   1.294       .  A
O507       Eu523   2.490       .  S
O508        C531   1.295       .  A
O508       Eu524   2.500       .  S
O509        C532   1.306       .  A
O509       Eu525   2.524       .  S
O510        C533   1.291       .  A
O510      Eu2037   2.476       .  S
O511        C534   1.310       .  A
O511      Eu2036   2.545       .  S
O512        C535   1.291       .  A
O512       Eu526   2.477       .  S
O513        C536   1.304       .  A
O513       Eu526   2.518       .  S
O514        C535   1.300       .  A
O514      Eu2036   2.493       .  S
O515       C1292   1.283       .  A
O515      Eu2037   2.425       .  S
O516        C531   1.299       .  A
O516       Eu522   2.488       .  S
O517        C534   1.279       .  A
O517       Eu523   2.391       .  S
O518        C533   1.298       .  A
O518      Eu1279   2.482   1_545  S
O519        C532   1.281       .  A
O519      Eu1278   2.408   1_545  S
O520       C2041   1.282       .  A
O520       Eu526   2.416       .  S
O521        C530   1.298       .  A
O521       Eu526   2.489       .  S
Eu522      O1244   2.466       .  S
Eu522      O1275   2.410       .  S
Eu522       O540   2.362       .  S
Eu522       O528   2.331       .  S
Eu522      O1252   2.366       .  S
Eu523      O1243   2.556       .  S
Eu523      O1274   2.483       .  S
Eu523       O527   2.348       .  S
Eu523       O538   2.383       .  S
Eu523      O2009   2.350       .  S
Eu523      O2773   2.323       .  S
Eu524      O2023   2.546   1_455  S
Eu524      O2026   2.492   1_455  S
Eu524       O528   2.346       .  S
Eu524      O2050   2.325   1_455  S
Eu525      O2022   2.480   1_455  S
Eu525      O2027   2.424   1_455  S
Eu525      O2795   2.368   1_445  S
Eu525      O1296   2.362   1_545  S
Eu526       O527   2.331       .  S
Eu526       O538   2.358       .  S
Eu526      O2052   2.362       .  S
Eu526      O2040   2.372       .  S
O527      Eu2793   2.370       .  S
O528      Eu2038   2.372   1_455  S
C529       C1563   1.474   1_455  S
C529       O2032   1.282   1_455  A
C536        C909   1.473       .  S
C536       O1271   1.283       .  A
H537        O538   0.964       .  S
O538      Eu2036   2.324       .  S
H539        O540   0.962       .  S
O540      Eu1281   2.362       .  S
O540      Eu2038   2.362   1_455  S
C541        C542   1.396       .  A
C541        C546   1.409       .  A
C542        C543   1.389       .  A
C542        H551   1.085       .  S
C543        C544   1.410       .  A
C543        S547   1.806       .  S
C544        C545   1.397       .  A
C545        C546   1.389       .  A
C545        H552   1.084       .  S
C546        S548   1.806       .  S
S547        H550   1.404       .  S
S548        H549   1.404       .  S
C553        C554   1.399       .  A
C553        C558   1.407       .  A
C554        C555   1.389   1_455  A
C554        H563   1.085   1_455  S
C555       C2068   1.407       .  A
C555        S559   1.803       .  S
C556        C557   1.400       .  A
C556       C2067   1.407       .  A
C557       C2070   1.388       .  A
C557        H564   1.085       .  S
C558       C2069   1.388       .  A
C558        S560   1.806       .  S
S559       H2074   1.407       .  S
S560        H561   1.407       .  S
H562       S2071   1.407       .  S
C565        C566   1.400       .  A
C565        C570   1.408       .  A
C566        C567   1.392       .  A
C566        H575   1.084       .  S
C567        C568   1.411       .  A
C567        S571   1.806       .  S
C568       C1701   1.447       .  S
C568        C569   1.399       .  A
C569        C570   1.387       .  A
C569        H576   1.085       .  S
C570        S572   1.804       .  S
S571        H574   1.407       .  S
S572        H573   1.407       .  S
C577        C578   1.399   1_545  A
C577       C1338   1.408       .  A
C578       C1335   1.391       .  A
C578        H587   1.085       .  S
C579        C580   1.411       .  A
C579       C1334   1.391       .  A
C579        S583   1.804       .  S
C580        C581   1.400       .  A
C581        C582   1.390       .  A
C581        H588   1.084       .  S
C582       C1333   1.409       .  A
C582        S584   1.806       .  S
S583        H586   1.406       .  S
S584       H1341   1.407       .  S
H585       S1340   1.407       .  S
C589        C590   1.396       .  A
C589        C594   1.407       .  A
C590        C591   1.392       .  A
C590        H599   1.083       .  S
C591        C592   1.408       .  A
C591        S595   1.810       .  S
C592        C923   1.444   1_545  S
C592        C593   1.397       .  A
C593        C594   1.395       .  A
C593        H600   1.083       .  S
C594        S596   1.807       .  S
S595        H598   1.407       .  S
S596        H597   1.407       .  S
C601        C602   1.408       .  A
C601        C606   1.404       .  A
C602        C603   1.387       .  A
C602        H611   1.084       .  S
C603        C604   1.404       .  A
C603        S607   1.804       .  S
C604        C605   1.407       .  A
C605        C606   1.390       .  A
C605        H612   1.084       .  S
C606        S608   1.804       .  S
S607        H610   1.407       .  S
S608        H609   1.407       .  S
C613        C614   1.399       .  A
C613        C618   1.410       .  A
C614        C615   1.390       .  A
C614        H623   1.085       .  S
C615        C616   1.411       .  A
C615        S619   1.805       .  S
C616        C899   1.454   1_545  S
C616        C617   1.400       .  A
C617        C618   1.393       .  A
C617        H624   1.084       .  S
C618        S620   1.805       .  S
S619        H622   1.407       .  S
S620        H621   1.406       .  S
C625        C626   1.398       .  A
C625        C630   1.409       .  A
C626        C627   1.386       .  A
C626        H635   1.085       .  S
C627        C628   1.410       .  A
C627        S631   1.805       .  S
C628        C629   1.401       .  A
C629        C630   1.392       .  A
C629        H636   1.084       .  S
C630        S632   1.805       .  S
S631        H634   1.406       .  S
S632        H633   1.407       .  S
C637        C638   1.394       .  A
C637        C642   1.407       .  A
C638        C639   1.389       .  A
C638        H647   1.084       .  S
C639       C1396   1.408       .  A
C639        S643   1.807       .  S
C640        C641   1.401       .  A
C640       C1395   1.408   1_545  A
C641       C1398   1.396       .  A
C641        H648   1.083       .  S
C642       C1397   1.396       .  A
C642       S1400   1.807       .  S
S643        H646   1.407       .  S
S644       C1398   1.807       .  S
S644       H1401   1.407       .  S
H645       S1400   1.407       .  S
C649        C650   1.398       .  A
C649        C654   1.409       .  A
C650        C651   1.389       .  A
C650        H659   1.085       .  S
C651        C652   1.411       .  A
C651        S655   1.806       .  S
C652        C653   1.400       .  A
C653        C654   1.392       .  A
C653        H660   1.084       .  S
C654        S656   1.806       .  S
S655        H658   1.406       .  S
S656        H657   1.407       .  S
C661        C662   1.397       .  A
C661        C666   1.411       .  A
C662        C663   1.389       .  A
C662        H671   1.085       .  S
C663        C664   1.409       .  A
C663        S667   1.804       .  S
C664        C665   1.398       .  A
C665        C666   1.391       .  A
C665        H672   1.084       .  S
C666        S668   1.804       .  S
S667        H670   1.405       .  S
S668        H669   1.402       .  S
C673        C674   1.397       .  A
C673        C678   1.409       .  A
C674        C675   1.389       .  A
C674        H683   1.085       .  S
C675        C676   1.410       .  A
C675        S679   1.807       .  S
C676        C677   1.396       .  A
C677        C678   1.386       .  A
C677        H684   1.085       .  S
C678        S680   1.805       .  S
S679        H682   1.402       .  S
S680        H681   1.402       .  S
C685        C686   1.395       .  A
C685        C690   1.410       .  A
C686        C687   1.391       .  A
C686        H695   1.084       .  S
C687        C688   1.408       .  A
C687        S691   1.808       .  S
C688        C689   1.397       .  A
C689        C690   1.390       .  A
C689        H696   1.084       .  S
C690        S692   1.805   1_545  S
S691        H694   1.407       .  S
S692        H693   1.405       .  S
C697        C698   1.397       .  A
C697        C702   1.410       .  A
C698        C699   1.387       .  A
C698        H707   1.085       .  S
C699        C700   1.409       .  A
C699        S703   1.804       .  S
C700        C701   1.398       .  A
C701        C702   1.392       .  A
C701        H708   1.084       .  S
C702        S704   1.804       .  S
S703        H706   1.406       .  S
S704        H705   1.406       .  S
C709        C710   1.398       .  A
C709        C714   1.410       .  A
C710        C711   1.388       .  A
C710        H719   1.085       .  S
C711        C712   1.410       .  A
C711        S715   1.806       .  S
C712        C713   1.401       .  A
C713        C714   1.395       .  A
C713        H720   1.084       .  S
C714        S716   1.803       .  S
S715        H718   1.407       .  S
S716        H717   1.404       .  S
C721        C722   1.397       .  A
C721       C2238   1.409       .  A
C722       C2235   1.390       .  A
C722        H731   1.085       .  S
C723        C724   1.410       .  A
C723       C2234   1.389   1_455  A
C723       S2239   1.804   1_455  S
C724        C725   1.397       .  A
C725        C726   1.388       .  A
C725        H732   1.085       .  S
C726       C2233   1.408   1_455  A
C726        S728   1.802       .  S
S727       C2235   1.804       .  S
S727       H2242   1.404       .  S
S728        H729   1.406       .  S
H730       S2239   1.404   1_455  S
C733        C734   1.394       .  A
C733        C738   1.414       .  A
C734        C735   1.387       .  A
C734        H743   1.084       .  S
C735        C736   1.412       .  A
C735        S739   1.807       .  S
C736        C737   1.394       .  A
C737        C738   1.389       .  A
C737        H744   1.084       .  S
C738        S740   1.806       .  S
S739        H742   1.407       .  S
S740        H741   1.407       .  S
C745       C1521   1.447       .  S
C745        C746   1.399       .  A
C745        C750   1.410       .  A
C746        C747   1.389       .  A
C746        H755   1.085       .  S
C747        C748   1.411       .  A
C747        S751   1.806       .  S
C748        C749   1.399       .  A
C749        C750   1.391       .  A
C749        H756   1.084   1_545  S
C750       S2264   1.806   1_545  S
S751        H754   1.407       .  S
S752       C2262   1.806   1_565  S
S752        H753   1.407   1_665  S
C757       C1146   1.487       .  S
N758        C759   1.376       .  A
C759        C984   1.473       .  S
C759        N760   1.342       .  A
N760        C761   1.341       .  A
C761       C1504   1.450       .  S
C761        N762   1.351       .  A
C763       C1177   1.489       .  S
C763        N764   1.358       .  A
C763        N768   1.376       .  A
N764        C765   1.351       .  A
C765       C3013   1.447   1_455  S
C765        N766   1.343       .  A
N766        C767   1.341       .  A
C767       C1254   1.474       .  S
C767        N768   1.377       .  A
C769        N770   1.377       .  A
C769        N774   1.357       .  A
N770        C771   1.376       .  A
C771       C1182   1.474       .  S
C771        N772   1.344       .  A
N772        C773   1.340       .  A
C773       C1489   1.445       .  S
C773        N774   1.348       .  A
C775       C1022   1.480       .  S
C775        N776   1.374       .  A
C775        N780   1.357       .  A
N776        C777   1.373       .  A
C777       C1038   1.463       .  S
C777        N778   1.339       .  A
N778        C779   1.339       .  A
C779       C1492   1.442       .  S
C779        N780   1.349       .  A
C781       C1291   1.491       .  S
C781        N782   1.356       .  A
C781        N786   1.379       .  A
N782        C783   1.349       .  A
C783       C1477   1.443       .  S
C783        N784   1.341       .  A
N784        C785   1.344       .  A
C785       C1092   1.478       .  S
C785        N786   1.379       .  A
C787       C1257   1.484       .  S
C787        N788   1.357       .  A
C787        N792   1.375       .  A
N788        C789   1.349       .  A
C789       C1480   1.440       .  S
C789        N790   1.340       .  A
N790        C791   1.342       .  A
C791       C1180   1.470       .  S
C791        N792   1.376       .  A
C793       C1041   1.492       .  S
C793        N794   1.359       .  A
C793        N798   1.373   1_554  A
N794        C795   1.354       .  A
C795       C1465   1.452       .  S
C795        N796   1.345   1_554  A
N796        C797   1.345       .  A
C797       C1015   1.471       .  S
C797        N798   1.376       .  A
C799       C1075   1.484       .  S
C799        N800   1.361       .  A
C799        N804   1.375       .  A
N800        C801   1.351       .  A
C801       C1468   1.452       .  S
C801        N802   1.339       .  A
N802        C803   1.342       .  A
C803       C1200   1.468       .  S
C803        N804   1.374       .  A
C805       C1094   1.493       .  S
C805        N806   1.378       .  A
C805        N810   1.358       .  A
N806        C807   1.379       .  A
C807       C2797   1.475       .  S
C807       N2320   1.344       .  A
N808       C2319   1.344   1_455  A
N808        C809   1.340       .  A
C809       C1453   1.445       .  S
C809       N2322   1.350   1_455  A
N810       C2321   1.350       .  A
C811        N812   1.356       .  A
C811        N816   1.377       .  A
N812        C813   1.352       .  A
C813       C1456   1.443       .  S
C813        N814   1.341       .  A
N814        C815   1.342       .  A
C815       C1231   1.472       .  S
C815        N816   1.378       .  A
C817       C1202   1.486       .  S
C817        N818   1.357       .  A
C817        N822   1.375       .  A
N818        C819   1.349       .  A
C819       C1444   1.442       .  S
C819        N820   1.340       .  A
N820        C821   1.344       .  A
C821       C1069   1.469       .  S
C821        N822   1.375       .  A
C823       C1238   1.489   1_545  S
N824        C825   1.348       .  A
C825       C1441   1.438       .  S
C825        N826   1.341       .  A
N826        C827   1.342       .  A
C827       C1123   1.476       .  S
C827        N828   1.380       .  A
C829       C2528   1.486   1_455  S
C829        N830   1.357       .  A
C829        N834   1.378       .  A
N830        C831   1.348       .  A
C831       C1429   1.435       .  S
C831        N832   1.337       .  A
N832        C833   1.341       .  A
C833       C1178   1.471       .  S
C833        N834   1.377       .  A
C835        C985   1.485       .  S
C835        N836   1.376       .  A
C835        N840   1.356       .  A
N836        C837   1.378       .  A
N838        C839   1.339       .  A
C839       C1432   1.433       .  S
C841       C1148   1.486       .  S
C841        N842   1.375       .  A
C841        N846   1.358       .  A
N842        C843   1.377       .  A
C843       C1290   1.469       .  S
C843        N844   1.342       .  A
N844        C845   1.339       .  A
C845       C1417   1.441       .  S
C845        N846   1.349       .  A
C847       C1184   1.486       .  S
C847        N848   1.358   1_455  A
C847       N2364   1.376   1_455  A
N848       C2361   1.349       .  A
C849       C1420   1.446       .  S
C849       N2360   1.350       .  A
C849        N850   1.342       .  A
N850        C851   1.346       .  A
C851       C1019   1.474       .  S
C851        N852   1.377       .  A
N852       C2359   1.376       .  A
C853       C1255   1.483       .  S
C853        N854   1.357       .  A
C853        N858   1.375       .  A
N854        C855   1.350       .  A
C855       C1405   1.450       .  S
C855        N856   1.343       .  A
N856        C857   1.345       .  A
C857       C1095   1.472       .  S
C857        N858   1.374       .  A
C859       C1286   1.487       .  S
C859        N860   1.361       .  A
C859        N864   1.375       .  A
N860        C861   1.352       .  A
C861       C1408   1.452       .  S
C861        N862   1.341       .  A
N862        C863   1.340       .  A
C863       C1147   1.468       .  S
C863        N864   1.375       .  A
C865       C1071   1.493       .  S
C865        N866   1.375   1_554  A
C865        N870   1.359       .  A
N866        C867   1.376       .  A
C867       C1017   1.476       .  S
C867        N868   1.345       .  A
N868        C869   1.344   1_556  A
C869       C1396   1.448       .  S
C869        N870   1.354       .  A
C871       C1073   1.484       .  S
C871        N872   1.357       .  A
C871        N876   1.377       .  A
N872        C873   1.348       .  A
C873       C1393   1.441       .  S
C873        N874   1.337       .  A
N874        C875   1.341       .  A
C875       C1235   1.468       .  S
C875        N876   1.377       .  A
C877       C1126   1.485       .  S
C877        N878   1.355       .  A
C877        N882   1.375       .  A
N878        C879   1.350       .  A
C879       C1381   1.448       .  S
C879        N880   1.344       .  A
N880        C881   1.345       .  A
C881       C1288   1.471       .  S
C881        N882   1.375       .  A
C883       C2640   1.490       .  S
C883        N884   1.376       .  A
C883        N888   1.360       .  A
N884        C885   1.376       .  A
C885       C1233   1.470       .  S
C885        N886   1.339       .  A
N886        C887   1.341       .  A
C887       C1384   1.449       .  S
C887        N888   1.353       .  A
C889       C1201   1.487       .  S
C889       N2402   1.374   1_455  A
C889       N2406   1.358   1_455  A
N890       C2401   1.375       .  A
N890        C891   1.376       .  A
C891       C1129   1.470       .  S
C891        N892   1.343       .  A
N892        C893   1.344       .  A
C893       C1369   1.451       .  S
C893        N894   1.352       .  A
N894       C2401   1.358       .  A
C895       C1232   1.484       .  S
C895        N896   1.374       .  A
C895        N900   1.360       .  A
N896        C897   1.373       .  A
C897       C1076   1.469       .  S
C897        N898   1.343       .  A
N898        C899   1.341       .  A
C899        N900   1.352       .  A
C901       C1093   1.483       .  S
C901        N902   1.359       .  A
C901        N906   1.374       .  A
N902        C903   1.353       .  A
C903       C1357   1.453       .  S
C903        N904   1.338       .  A
N904        C905   1.338       .  A
C905       C1237   1.459       .  S
C905        N906   1.373       .  A
C907       C1124   1.486       .  S
C907        N908   1.376       .  A
C907        N912   1.358       .  A
N908        C909   1.374       .  A
N910        C911   1.342       .  A
C911       C1360   1.455       .  S
C913       C1179   1.490       .  S
C913        N914   1.379       .  A
C913        N918   1.357       .  A
N914        C915   1.378       .  A
C915        C987   1.478       .  S
C915        N916   1.345       .  A
N916        C917   1.341       .  A
C917       C1345   1.444       .  S
C917        N918   1.349       .  A
C919       C1181   1.491       .  S
C919        N920   1.376       .  A
C919        N924   1.356       .  A
N920        C921   1.378       .  A
C921       C1256   1.476       .  S
C921        N922   1.345       .  A
N922        C923   1.343       .  A
C923        N924   1.350       .  A
C925       C1289   1.487       .  S
C925        N926   1.357       .  A
C925        N930   1.376       .  A
N926        C927   1.350       .  A
C927       C1333   1.449       .  S
C927        N928   1.341       .  A
N928        C929   1.343       .  A
C929       C1127   1.470       .  S
C929        N930   1.376       .  A
C931       C1287   1.492       .  S
C931        N932   1.375       .  A
C931        N936   1.359       .  A
N932        C933   1.376       .  A
C933       C1149   1.471       .  S
C933        N934   1.342       .  A
N934        C935   1.342       .  A
C935       C1336   1.450       .  S
C935        N936   1.353       .  A
C937       C1236   1.491       .  S
C937        N938   1.359       .  A
C937        N942   1.376       .  A
N938        C939   1.352       .  A
C939       C1321   1.449       .  S
C939        N940   1.342       .  A
N940        C941   1.342       .  A
C941       C1125   1.472       .  S
C941        N942   1.376       .  A
C943       C1234   1.487       .  S
C943        N944   1.356       .  A
C943        N948   1.375       .  A
N944        C945   1.351       .  A
C945       C2836   1.446   1_455  S
C945        N946   1.342       .  A
N946        C947   1.342       .  A
C947       C1072   1.469       .  S
C947        N948   1.376       .  A
C949       C1070   1.490       .  S
C949        N950   1.357       .  A
C949        N954   1.374   1_554  A
N950        C951   1.351       .  A
C951       C1312   1.447       .  S
C951        N952   1.344   1_554  A
N952        C953   1.343       .  A
C953       C1021   1.472       .  S
C953        N954   1.377       .  A
C955       C1039   1.477       .  S
C955        N956   1.356       .  A
C955        N960   1.375       .  A
N956        C957   1.347       .  A
C957       C1309   1.444       .  S
C957        N958   1.341       .  A
N958        C959   1.343       .  A
C959       C1203   1.469       .  S
C959        N960   1.374       .  A
C961       C1018   1.487       .  S
C961        N962   1.357       .  A
C961        N966   1.378       .  A
N962        C963   1.348       .  A
C963       C1297   1.439       .  S
C963        N964   1.339       .  A
N964        C965   1.343       .  A
C965       C1183   1.472       .  S
C965        N966   1.377       .  A
C967       C1020   1.490       .  S
C967        N968   1.357       .  A
C967        N972   1.376       .  A
N968       C2481   1.349       .  A
C969       C1300   1.440       .  S
C969       N2480   1.349   1_455  A
C969        N970   1.342       .  A
N970       C2483   1.343   1_455  A
C971       C2586   1.473       .  S
C971       N2482   1.344       .  A
C971        N972   1.378       .  A
O973        C984   1.305       .  A
O973      Eu1009   2.519       .  S
O974        C985   1.292       .  A
O974      Eu1008   2.482       .  S
O975        C986   1.291       .  A
O975       Eu981   2.476       .  S
O976        C987   1.306       .  A
O976       Eu981   2.526       .  S
O977        C987   1.283       .  A
O977      Eu1011   2.425       .  S
O978        C986   1.299       .  A
O978      Eu1010   2.486       .  S
O979        C985   1.299       .  A
O979       Eu981   2.488       .  S
O980        C984   1.283       .  A
O980       Eu981   2.419       .  S
Eu981       O991   2.362       .  S
Eu981       O983   2.368       .  S
Eu981       O982   2.328       .  S
Eu981       O989   2.365       .  S
O982      Eu1011   2.369       .  S
O982      Eu1008   2.348       .  S
O983      Eu1009   2.329       .  S
O983      Eu1010   2.345       .  S
H988        O989   0.965       .  S
O989      Eu1010   2.330       .  S
O989      Eu1008   2.385       .  S
H990        O991   0.964       .  S
O991      Eu1009   2.365       .  S
O991      Eu1011   2.362       .  S
O992       C1015   1.309       .  A
O992      Eu1008   2.544       .  S
O993       C1016   1.290       .  A
O993      Eu1009   2.472       .  S
O994       C1017   1.309       .  A
O994      Eu1010   2.544       .  S
O995       C1018   1.290       .  A
O995      Eu1011   2.473       .  S
O996       C1019   1.305       .  A
O996      Eu1011   2.521       .  S
O997       C1020   1.294       .  A
O997      Eu1010   2.493       .  S
O998       C1021   1.309       .  A
O998      Eu1012   2.545       .  S
O999       C1022   1.291       .  A
O999      Eu1012   2.473       .  S
O1000      C1021   1.279       .  A
O1000     Eu1010   2.393       .  S
O1001      C1022   1.298       .  A
O1001     Eu1011   2.483       .  S
O1002      C1017   1.281       .  A
O1002     Eu1008   2.406       .  S
O1003      C1020   1.300       .  A
O1003     Eu1009   2.491       .  S
O1004      C1019   1.283       .  A
O1004     Eu1009   2.421       .  S
O1005      C1018   1.300       .  A
O1005     Eu1008   2.493       .  S
O1006      C1015   1.279       .  A
O1006     Eu1012   2.392       .  S
O1007      C1016   1.299       .  A
O1007     Eu1012   2.491       .  S
Eu1008     O1026   2.329       .  S
Eu1008     O1014   2.350       .  S
Eu1009     O1013   2.365       .  S
Eu1009     O1024   2.362       .  S
Eu1010     O1024   2.384       .  S
Eu1010     O1014   2.349       .  S
Eu1011     O1013   2.331       .  S
Eu1011     O1026   2.367       .  S
Eu1012     O1013   2.343       .  S
Eu1012     O1024   2.320       .  S
Eu1012     O1026   2.385       .  S
Eu1012     O1014   2.348       .  S
C1016      C2341   1.487       .  S
H1023      O1024   0.964       .  S
H1025      O1026   0.963       .  S
O1027      C1038   1.308       .  A
O1027     Eu1063   2.534       .  S
O1028      C1039   1.289       .  A
O1028     Eu1062   2.463       .  S
O1029      C1040   1.310   1_565  A
O1029     Eu1035   2.549       .  S
O1030      C1041   1.296   1_556  A
O1030     Eu2547   2.502       .  S
O1031      C1041   1.298       .  A
O1031     Eu1065   2.484       .  S
O1032     Eu1064   2.382       .  S
O1033      C1039   1.297       .  A
O1033     Eu1035   2.475   1_554  S
O1034      C1038   1.277       .  A
O1034     Eu2547   2.383       .  S
Eu1035     O2542   2.501   1_455  S
Eu1035     O2546   2.385   1_455  S
Eu1035     O2557   2.375   1_456  S
Eu1035     O1037   2.356       .  S
Eu1035     O1036   2.345   1_556  S
Eu1035     O1043   2.321   1_556  S
O1036     Eu2577   2.327   1_455  S
O1036     Eu1062   2.369       .  S
O1037     Eu2575   2.355   1_455  S
H1042      O1043   0.962   1_556  S
O1043     Eu1062   2.353       .  S
H1044      O1045   0.965   1_556  S
O1045     Eu2547   2.376   1_554  S
O1045     Eu1063   2.324   1_554  S
O1045     Eu1065   2.360       .  S
O1046      C1069   1.304       .  A
O1047      C1070   1.295   1_556  A
O1048      C1071   1.295   1_556  A
O1048     Eu1064   2.502       .  S
O1049      C2584   1.307       .  A
O1049     Eu1065   2.534       .  S
O1050      C1073   1.290       .  A
O1050     Eu1065   2.471       .  S
O1051      C1074   1.309       .  A
O1051     Eu1064   2.543       .  S
O1052      C1075   1.292       .  A
O1052     Eu1066   2.482       .  S
O1053     Eu2578   2.518       .  S
O1054      C1075   1.296       .  A
O1054     Eu1064   2.473   1_554  S
O1055      C1076   1.282       .  A
O1055     Eu1065   2.416       .  S
O1056      C1071   1.298       .  A
O1057      C2586   1.280       .  A
O1058      C1073   1.299       .  A
O1058     Eu1063   2.485   1_554  S
O1059      C1072   1.280       .  A
O1059     Eu1062   2.400       .  S
O1060      C1069   1.282       .  A
O1060     Eu1066   2.411       .  S
O1061      C1070   1.299       .  A
O1061     Eu2578   2.487       .  S
Eu1062     O1080   2.364       .  S
Eu1063     O2549   2.353       .  S
Eu1063     O1067   2.346   1_556  S
Eu1063     O1834   2.375   1_566  S
Eu1064     O1078   2.325   1_556  S
Eu1064     O1068   2.343   1_556  S
Eu1065     O2548   2.328       .  S
Eu1065     O1067   2.374       .  S
Eu1065     O2592   2.360       .  S
Eu1066     O2565   2.517   1_455  S
Eu1066     O2573   2.486   1_455  S
Eu1066     O1823   2.332   1_455  S
Eu1066     O1078   2.352       .  S
Eu1066     O1068   2.368       .  S
O1067     Eu1822   2.330   1_565  S
C1072      O2561   1.307       .  A
C1074      C2483   1.473   1_455  S
C1074      O2569   1.280   1_455  A
H1077      O1078   0.960   1_556  S
O1078     Eu1819   2.377   1_454  S
H1079      O1080   0.963       .  S
O1080     Eu2577   2.360   1_455  S
O1081      C1092   1.308       .  A
O1081     Eu1117   2.538       .  S
O1082      C1093   1.292       .  A
O1082     Eu1116   2.477       .  S
O1083      C1094   1.293       .  A
O1083     Eu1089   2.490       .  S
O1084      C1095   1.305       .  A
O1084     Eu1089   2.520       .  S
O1085      C1095   1.283       .  A
O1085     Eu1119   2.420       .  S
O1086      C1094   1.300       .  A
O1086     Eu1118   2.494       .  S
O1087      C1093   1.300       .  A
O1087     Eu1089   2.492       .  S
O1088      C1092   1.282       .  A
O1088     Eu1089   2.418       .  S
Eu1089     O1099   2.366       .  S
Eu1089     O1091   2.370       .  S
Eu1089     O1090   2.335       .  S
Eu1089     O1097   2.365       .  S
O1090     Eu1119   2.370       .  S
O1090     Eu1116   2.347       .  S
O1091     Eu1117   2.328       .  S
O1091     Eu1118   2.344       .  S
H1096      O1097   0.964       .  S
O1097     Eu1118   2.328       .  S
O1097     Eu1116   2.390       .  S
H1098      O1099   0.964       .  S
O1099     Eu1117   2.362       .  S
O1099     Eu1119   2.363       .  S
O1100      C1123   1.311       .  A
O1100     Eu1116   2.554       .  S
O1101      C1124   1.291       .  A
O1101     Eu1117   2.477       .  S
O1102      C1125   1.310       .  A
O1102     Eu1118   2.545       .  S
O1103      C1126   1.290       .  A
O1103     Eu1119   2.469       .  S
O1104      C1127   1.307       .  A
O1104     Eu1119   2.532       .  S
O1105      C1128   1.294       .  A
O1105     Eu1118   2.491       .  S
O1106      C1129   1.309       .  A
O1106     Eu1120   2.546       .  S
O1107      C1130   1.292       .  A
O1107     Eu1120   2.484       .  S
O1108      C1129   1.279       .  A
O1108     Eu1118   2.390       .  S
O1109      C1130   1.302       .  A
O1109     Eu1119   2.505       .  S
O1110      C1125   1.279       .  A
O1110     Eu1116   2.396       .  S
O1111      C1128   1.299       .  A
O1111     Eu1117   2.490       .  S
O1112      C1127   1.280       .  A
O1112     Eu1117   2.403       .  S
O1113      C1126   1.299       .  A
O1113     Eu1116   2.489       .  S
O1114      C1123   1.279       .  A
O1114     Eu1120   2.395       .  S
O1115      C1124   1.298       .  A
O1115     Eu1120   2.484       .  S
Eu1116     O1134   2.318       .  S
Eu1116     O1122   2.347       .  S
Eu1117     O1121   2.371       .  S
Eu1117     O1132   2.359       .  S
Eu1118     O1132   2.379       .  S
Eu1118     O1122   2.354       .  S
Eu1119     O1121   2.325       .  S
Eu1119     O1134   2.362       .  S
Eu1120     O1121   2.349       .  S
Eu1120     O1132   2.321       .  S
Eu1120     O1134   2.380       .  S
Eu1120     O1122   2.348       .  S
C1128      C2395   1.489       .  S
H1131      O1132   0.964       .  S
H1133      O1134   0.962       .  S
O1135      C1146   1.291       .  A
O1135     Eu1171   2.479       .  S
O1136      C1147   1.310       .  A
O1136     Eu1170   2.546       .  S
O1137      C1148   1.294       .  A
O1137     Eu1143   2.489       .  S
O1138      C1149   1.310       .  A
O1138     Eu1143   2.550       .  S
O1139      C1149   1.278       .  A
O1139     Eu1173   2.389       .  S
O1140      C1148   1.298       .  A
O1140     Eu1172   2.484       .  S
O1141      C1147   1.278       .  A
O1141     Eu1143   2.385       .  S
O1142      C1146   1.298       .  A
O1142     Eu1143   2.485       .  S
Eu1143     O1153   2.327       .  S
Eu1143     O1145   2.339       .  S
Eu1143     O1144   2.349       .  S
Eu1143     O1151   2.387       .  S
O1144     Eu1173   2.349       .  S
O1144     Eu1170   2.351       .  S
O1145     Eu1171   2.362       .  S
O1145     Eu1172   2.324       .  S
H1150      O1151   0.963       .  S
O1151     Eu1172   2.361       .  S
O1151     Eu1170   2.325       .  S
H1152      O1153   0.961       .  S
O1153     Eu1171   2.366       .  S
O1153     Eu1173   2.386       .  S
O1154      C1177   1.293       .  A
O1154     Eu1170   2.488       .  S
O1155      C1178   1.306       .  A
O1155     Eu1171   2.527       .  S
O1156      C1179   1.291       .  A
O1156     Eu1172   2.478       .  S
O1157      C1180   1.309       .  A
O1157     Eu1173   2.542       .  S
O1158      C1181   1.294       .  A
O1158     Eu1173   2.493       .  S
O1159      C1182   1.304       .  A
O1159     Eu1172   2.517       .  S
O1160      C1183   1.306       .  A
O1160     Eu1174   2.525       .  S
O1161      C1184   1.292       .  A
O1161     Eu1174   2.482       .  S
O1162      C1183   1.282       .  A
O1162     Eu1172   2.411       .  S
O1163      C1184   1.297       .  A
O1163     Eu1173   2.479       .  S
O1164      C1179   1.299       .  A
O1164     Eu1170   2.490       .  S
O1165      C1182   1.284       .  A
O1165     Eu1171   2.423       .  S
O1166      C1181   1.300       .  A
O1166     Eu1171   2.492       .  S
O1167      C1180   1.279       .  A
O1167     Eu1170   2.395       .  S
O1168      C1177   1.299       .  A
O1168     Eu1174   2.487       .  S
O1169      C1178   1.281       .  A
O1169     Eu1174   2.409       .  S
Eu1170     O1188   2.384       .  S
Eu1170     O1176   2.344       .  S
Eu1171     O1175   2.328       .  S
Eu1171     O1186   2.363       .  S
Eu1172     O1186   2.364       .  S
Eu1172     O1176   2.367       .  S
Eu1173     O1175   2.343       .  S
Eu1173     O1188   2.327       .  S
Eu1174     O1175   2.367       .  S
Eu1174     O1186   2.363       .  S
Eu1174     O1188   2.359       .  S
Eu1174     O1176   2.329       .  S
H1185      O1186   0.965       .  S
H1187      O1188   0.963       .  S
O1189      C1200   1.305       .  A
O1189     Eu1225   2.522       .  S
O1190      C1201   1.293       .  A
O1190     Eu1224   2.485       .  S
O1191      C1202   1.292       .  A
O1191     Eu1197   2.482       .  S
O1192      C1203   1.305       .  A
O1192     Eu1197   2.520       .  S
O1193      C1203   1.282       .  A
O1193     Eu1227   2.412       .  S
O1194      C1202   1.297       .  A
O1194     Eu1226   2.477       .  S
O1195      C1201   1.299       .  A
O1195     Eu1197   2.488       .  S
O1196      C1200   1.281       .  A
O1196     Eu1197   2.408       .  S
Eu1197     O1207   2.363       .  S
Eu1197     O1199   2.373       .  S
Eu1197     O1198   2.328       .  S
Eu1197     O1205   2.356       .  S
O1198     Eu1227   2.367       .  S
O1198     Eu1224   2.344       .  S
O1199     Eu1225   2.332       .  S
O1199     Eu1226   2.344       .  S
H1204      O1205   0.964       .  S
O1205     Eu1226   2.323       .  S
O1205     Eu1224   2.384       .  S
H1206      O1207   0.964       .  S
O1207     Eu1225   2.364       .  S
O1207     Eu1227   2.362       .  S
O1208      C1231   1.311       .  A
O1208     Eu1224   2.557       .  S
O1209      C1232   1.292       .  A
O1209     Eu1225   2.485       .  S
O1210      C1233   1.310       .  A
O1210     Eu1226   2.547       .  S
O1211      C1234   1.291       .  A
O1211     Eu1227   2.475       .  S
O1212      C1235   1.308       .  A
O1212     Eu1227   2.536       .  S
O1213      C1236   1.295       .  A
O1213     Eu1226   2.501       .  S
O1214      C1237   1.308       .  A
O1214     Eu1228   2.537       .  S
O1215      C1238   1.292       .  A
O1215     Eu1228   2.482       .  S
O1216      C1237   1.276       .  A
O1216     Eu1226   2.372       .  S
O1217      C1238   1.301       .  A
O1217     Eu1227   2.497       .  S
O1218      C1233   1.278       .  A
O1218     Eu1224   2.389       .  S
O1219      C1236   1.298       .  A
O1219     Eu1225   2.486       .  S
O1220      C1235   1.279       .  A
O1220     Eu1225   2.395       .  S
O1221      C1234   1.299       .  A
O1221     Eu1224   2.488       .  S
O1222      C1231   1.277       .  A
O1222     Eu1228   2.380       .  S
O1223      C1232   1.295       .  A
O1223     Eu1228   2.471       .  S
Eu1224     O1242   2.320       .  S
Eu1224     O1230   2.347       .  S
Eu1225     O1229   2.367       .  S
Eu1225     O1240   2.349       .  S
Eu1226     O1240   2.380       .  S
Eu1226     O1230   2.356       .  S
Eu1227     O1229   2.322       .  S
Eu1227     O1242   2.363       .  S
Eu1228     O1229   2.343       .  S
Eu1228     O1240   2.316       .  S
Eu1228     O1242   2.379       .  S
Eu1228     O1230   2.349       .  S
H1239      O1240   0.961       .  S
H1241      O1242   0.962       .  S
O1243      C2766   1.311       .  A
O1244      C1255   1.289       .  A
O1245     Eu1251   2.552       .  S
O1246      C1257   1.292       .  A
O1246     Eu1251   2.481       .  S
O1247      C1257   1.299       .  A
O1247     Eu1281   2.489       .  S
O1248      C1256   1.280       .  A
O1248     Eu1280   2.396       .  S
O1249      C1255   1.298       .  A
O1249     Eu1251   2.484       .  S
O1250      C1254   1.278       .  A
O1250     Eu1251   2.388       .  S
Eu1251     O1261   2.386       .  S
Eu1251     O1252   2.345       .  S
O1252     Eu1281   2.332       .  S
O1253     Eu2791   2.350   1_455  S
O1253     Eu1280   2.354       .  S
C1254      O2755   1.312       .  A
H1258      O1259   0.964       .  S
O1259     Eu1280   2.381       .  S
O1259     Eu1278   2.362       .  S
H1260      O1261   0.962       .  S
O1261     Eu2035   2.323   1_455  S
O1261     Eu1281   2.367       .  S
O1262      C1285   1.306       .  A
O1262     Eu1278   2.523       .  S
O1263      C1286   1.294       .  A
O1263     Eu1279   2.490       .  S
O1264      C1287   1.295       .  A
O1264     Eu1280   2.499       .  S
O1265      C1288   1.306       .  A
O1265     Eu1281   2.526       .  S
O1266      C1289   1.291       .  A
O1266     Eu2793   2.480       .  S
O1267      C1290   1.310       .  A
O1267     Eu2792   2.545       .  S
O1268      C1291   1.291       .  A
O1268     Eu1282   2.478       .  S
O1269      C1292   1.304   1_565  A
O1269     Eu1282   2.516       .  S
O1270      C1291   1.300       .  A
O1270     Eu2792   2.493       .  S
O1271     Eu2793   2.423       .  S
O1272      C1287   1.298       .  A
O1272     Eu1278   2.485       .  S
O1273      C1290   1.278       .  A
O1273     Eu1279   2.387       .  S
O1274      C1289   1.298       .  A
O1275      C1288   1.281       .  A
O1276      C2797   1.282       .  A
O1276     Eu1282   2.416       .  S
O1277      C1286   1.298       .  A
O1277     Eu1282   2.488       .  S
Eu1278     O1296   2.361       .  S
Eu1278     O1284   2.331       .  S
Eu1279     O2765   2.350       .  S
Eu1279     O2017   2.321   1_565  S
Eu1279     O1283   2.346       .  S
Eu1279     O1294   2.385       .  S
Eu1280     O2779   2.545   1_455  S
Eu1280     O2782   2.492   1_455  S
Eu1280     O2806   2.323   1_455  S
Eu1280     O1284   2.346       .  S
Eu1281     O2778   2.479   1_455  S
Eu1281     O2783   2.424   1_455  S
Eu1281     O2039   2.369   1_455  S
Eu1282     O1283   2.331       .  S
Eu1282     O1294   2.359       .  S
Eu1282     O2808   2.362       .  S
Eu1282     O2796   2.371       .  S
O1283     Eu2037   2.368   1_565  S
O1284     Eu2794   2.371   1_455  S
C1285      C2319   1.475   1_455  S
C1285      O2788   1.282   1_455  A
H1293      O1294   0.964       .  S
O1294     Eu2792   2.325       .  S
H1295      O1296   0.961       .  S
O1296     Eu2794   2.362   1_455  S
C1297      C1298   1.396       .  A
C1297      C1302   1.409       .  A
C1298      C1299   1.388       .  A
C1298      H1307   1.085       .  S
C1299      C1300   1.409       .  A
C1299      S1303   1.805       .  S
C1300      C1301   1.397       .  A
C1301      C1302   1.389       .  A
C1301      H1308   1.085       .  S
C1302      S1304   1.806       .  S
S1303      H1306   1.403       .  S
S1304      H1305   1.405       .  S
C1309      C1310   1.399       .  A
C1309      C1314   1.407       .  A
C1310      C1311   1.390   1_455  A
C1310      H1319   1.085   1_455  S
C1311      C2824   1.408       .  A
C1311      S1315   1.803       .  S
C1312      C2823   1.408       .  A
C1312      C1313   1.400       .  A
C1313      C2826   1.388       .  A
C1313      H1320   1.085       .  S
C1314      C2825   1.388       .  A
C1314      S1316   1.806       .  S
S1315      H2830   1.406       .  S
S1316      H1317   1.407       .  S
H1318      S2827   1.406       .  S
C1321      C1322   1.400       .  A
C1321      C1326   1.408       .  A
C1322      C1323   1.392       .  A
C1322      H1331   1.084       .  S
C1323      C1324   1.411       .  A
C1323      S1327   1.806       .  S
C1324      C2457   1.447       .  S
C1324      C1325   1.399       .  A
C1325      C1326   1.387       .  A
C1325      H1332   1.085       .  S
C1326      S1328   1.804       .  S
S1327      H1330   1.407       .  S
S1328      H1329   1.407       .  S
C1333      C1334   1.399       .  A
C1334      H1343   1.085       .  S
C1335      C1336   1.411       .  A
C1335      S1339   1.804       .  S
C1336      C1337   1.400       .  A
C1337      C1338   1.389   1_565  A
C1337      H1344   1.085       .  S
C1338      S1340   1.806       .  S
S1339      H1342   1.406       .  S
C1345      C1346   1.397       .  A
C1345      C1350   1.407       .  A
C1346      C1347   1.392       .  A
C1346      H1355   1.083       .  S
C1347      C1348   1.408       .  A
C1347      S1351   1.810       .  S
C1348      C1349   1.397       .  A
C1349      C1350   1.394       .  A
C1349      H1356   1.083       .  S
C1350      S1352   1.806       .  S
S1351      H1354   1.407       .  S
S1352      H1353   1.407       .  S
C1357      C1358   1.407       .  A
C1357      C1362   1.403       .  A
C1358      C1359   1.387       .  A
C1358      H1367   1.084       .  S
C1359      C1360   1.405       .  A
C1359      S1363   1.804       .  S
C1360      C1361   1.407       .  A
C1361      C1362   1.389       .  A
C1361      H1368   1.084       .  S
C1362      S1364   1.804       .  S
S1363      H1366   1.407       .  S
S1364      H1365   1.407       .  S
C1369      C1370   1.399       .  A
C1369      C1374   1.410       .  A
C1370      C1371   1.390       .  A
C1370      H1379   1.085       .  S
C1371      C1372   1.411       .  A
C1371      S1375   1.806       .  S
C1372      C1373   1.400       .  A
C1373      C1374   1.393       .  A
C1373      H1380   1.084       .  S
C1374      S1376   1.805       .  S
S1375      H1378   1.407       .  S
S1376      H1377   1.406       .  S
C1381      C1382   1.398       .  A
C1381      C1386   1.409       .  A
C1382      C1383   1.386       .  A
C1382      H1391   1.085       .  S
C1383      C1384   1.410       .  A
C1383      S1387   1.804       .  S
C1384      C1385   1.401       .  A
C1385      C1386   1.392       .  A
C1385      H1392   1.084       .  S
C1386      S1388   1.804       .  S
S1387      H1390   1.406       .  S
S1388      H1389   1.407       .  S
C1393      C1394   1.394       .  A
C1393      C1398   1.406   1_565  A
C1394      C1395   1.389       .  A
C1394      H1403   1.084       .  S
C1395      S1399   1.807       .  S
C1396      C1397   1.400       .  A
C1397      H1404   1.083       .  S
S1399      H1402   1.407       .  S
C1405      C1406   1.398       .  A
C1405      C1410   1.410       .  A
C1406      C1407   1.389       .  A
C1406      H1415   1.085       .  S
C1407      C1408   1.411       .  A
C1407      S1411   1.806       .  S
C1408      C1409   1.400       .  A
C1409      C1410   1.393       .  A
C1409      H1416   1.084       .  S
C1410      S1412   1.806       .  S
S1411      H1414   1.406       .  S
S1412      H1413   1.407       .  S
C1417      C1418   1.395       .  A
C1417      C1422   1.411       .  A
C1418      C1419   1.388       .  A
C1418      H1427   1.085       .  S
C1419      C1420   1.410       .  A
C1419      S1423   1.805       .  S
C1420      C1421   1.398       .  A
C1421      C1422   1.393       .  A
C1421      H1428   1.084       .  S
C1422      S1424   1.807       .  S
S1423      H1426   1.403       .  S
S1424      H1425   1.404       .  S
C1429      C1430   1.396       .  A
C1429      C1434   1.408       .  A
C1430      C1431   1.387       .  A
C1430      H1439   1.085       .  S
C1431      C1432   1.410       .  A
C1431      S1435   1.810       .  S
C1432      C1433   1.397       .  A
C1433      C1434   1.387       .  A
C1433      H1440   1.085       .  S
C1434      S1436   1.807       .  S
S1435      H1438   1.400       .  S
S1436      H1437   1.404       .  S
C1441      C1442   1.395       .  A
C1441      C1446   1.410       .  A
C1442      C1443   1.390       .  A
C1442      H1451   1.084       .  S
C1443      C1444   1.407       .  A
C1443      S1447   1.808       .  S
C1444      C1445   1.398       .  A
C1445      C1446   1.390       .  A
C1445      H1452   1.084       .  S
C1446      S1448   1.805       .  S
S1447      H1450   1.407       .  S
S1448      H1449   1.405       .  S
C1453      C1454   1.397       .  A
C1453      C1458   1.411       .  A
C1454      C1455   1.387       .  A
C1454      H1463   1.085       .  S
C1455      C1456   1.409       .  A
C1455      S1459   1.804       .  S
C1456      C1457   1.398       .  A
C1457      C1458   1.392       .  A
C1457      H1464   1.084       .  S
C1458      S1460   1.804       .  S
S1459      H1462   1.406       .  S
S1460      H1461   1.405       .  S
C1465      C1466   1.398       .  A
C1465      C1470   1.410       .  A
C1466      C1467   1.388       .  A
C1466      H1475   1.085       .  S
C1467      C1468   1.411       .  A
C1467      S1471   1.806       .  S
C1468      C1469   1.401       .  A
C1469      C1470   1.394       .  A
C1469      H1476   1.084       .  S
C1470      S1472   1.804       .  S
S1471      H1474   1.406       .  S
S1472      H1473   1.404       .  S
C1477      C1478   1.397       .  A
C1477      C2994   1.409       .  A
C1478      C2991   1.389       .  A
C1478      H1487   1.085       .  S
C1479      C2990   1.389   1_455  A
C1479      C1480   1.410       .  A
C1479      S2995   1.804   1_455  S
C1480      C1481   1.397       .  A
C1481      C1482   1.388       .  A
C1481      H1488   1.085       .  S
C1482      C2989   1.409   1_455  A
C1482      S1484   1.802       .  S
S1483      C2991   1.805       .  S
S1483      H2998   1.404       .  S
S1484      H1485   1.406       .  S
H1486      S2995   1.404   1_455  S
C1489      C1490   1.394       .  A
C1489      C1494   1.413       .  A
C1490      C1491   1.386       .  A
C1490      H1499   1.084       .  S
C1491      C1492   1.412       .  A
C1491      S1495   1.807       .  S
C1492      C1493   1.394       .  A
C1493      C1494   1.389       .  A
C1493      H1500   1.084       .  S
C1494      S1496   1.805       .  S
S1495      H1498   1.407       .  S
S1496      H1497   1.407       .  S
C1501      C2277   1.446       .  S
C1501      C1502   1.399       .  A
C1501      C1506   1.409       .  A
C1502      C1503   1.389       .  A
C1502      H1511   1.085       .  S
C1503      C1504   1.411       .  A
C1503      S1507   1.806       .  S
C1504      C1505   1.400       .  A
C1505      C1506   1.391       .  A
C1505      H1512   1.084       .  S
C1506      S3020   1.806       .  S
S1507      H1510   1.407       .  S
S1508      C3018   1.806       .  S
S1508      H1509   1.407   1_655  S
C1513      C1902   1.488       .  S
C1513      N2270   1.377       .  A
C1513      N2274   1.360       .  A
N1514      C2269   1.377   1_545  A
N1514      C1515   1.375       .  A
C1515      C1740   1.473       .  S
C1515      N1516   1.343       .  A
N1516      C1517   1.341       .  A
C1517      C2260   1.451       .  S
C1517      N1518   1.351       .  A
N1518      C2269   1.360   1_545  A
C1519      C1933   1.489       .  S
C1519      N1520   1.358       .  A
C1519      N1524   1.376       .  A
N1520      C1521   1.352       .  A
C1521      N1522   1.343       .  A
N1522      C1523   1.341       .  A
C1523      C2010   1.474       .  S
C1523      N1524   1.377       .  A
C1525      C2498   1.484       .  S
C1525      N1526   1.377       .  A
C1525      N1530   1.356       .  A
N1526      C1527   1.376       .  A
C1527      C1938   1.473       .  S
C1527      N1528   1.344       .  A
N1528      C1529   1.340       .  A
C1529      C2245   1.443       .  S
C1529      N1530   1.348       .  A
C1531      C1778   1.481       .  S
C1531      N1532   1.374       .  A
C1531      N1536   1.358       .  A
N1532      C1533   1.373       .  A
C1533      C1794   1.464       .  S
C1533      N1534   1.340       .  A
N1534      C1535   1.339       .  A
C1535      C2248   1.443       .  S
C1535      N1536   1.350       .  A
C1537      C2047   1.490       .  S
C1537      N1538   1.356       .  A
C1537      N1542   1.379       .  A
N1538      C1539   1.348       .  A
C1539      C2233   1.442       .  S
C1539      N1540   1.341       .  A
N1540      C1541   1.344       .  A
C1541      C1848   1.479       .  S
C1541      N1542   1.379       .  A
C1543      C2013   1.485       .  S
C1543      N1544   1.358       .  A
C1543      N1548   1.375       .  A
N1544      C1545   1.350       .  A
C1545      C2236   1.442       .  S
C1545      N1546   1.340       .  A
N1546      C1547   1.342       .  A
C1547      C1936   1.469       .  S
C1547      N1548   1.376       .  A
C1549      C1797   1.490       .  S
C1549      N1550   1.359       .  A
C1549      N1554   1.373   1_554  A
N1550      C1551   1.354       .  A
C1551      C2221   1.451       .  S
C1551      N1552   1.345   1_554  A
N1552      C1553   1.344       .  A
C1553      C1771   1.470       .  S
C1553      N1554   1.375       .  A
C1555      C1831   1.481       .  S
C1555      N1556   1.361       .  A
C1555      N1560   1.374       .  A
N1556      C1557   1.351       .  A
C1557      C2224   1.452       .  S
C1557      N1558   1.339       .  A
N1558      C1559   1.342       .  A
C1559      C1956   1.466       .  S
C1559      N1560   1.373       .  A
C1561      C1850   1.493       .  S
C1561      N1562   1.378       .  A
C1561      N1566   1.358       .  A
N1562      C1563   1.378       .  A
N1564      C1565   1.340       .  A
C1565      C2209   1.445       .  S
C1567      C2642   1.493       .  S
C1567      N1568   1.357       .  A
C1567      N1572   1.377       .  A
N1568      C1569   1.352       .  A
C1569      C2212   1.444       .  S
C1569      N1570   1.341       .  A
N1570      C1571   1.342       .  A
C1571      C1987   1.472       .  S
C1571      N1572   1.378       .  A
C1573      C1958   1.484       .  S
C1573      N1574   1.357       .  A
C1573      N1578   1.374       .  A
N1574      C1575   1.349       .  A
C1575      C2200   1.442       .  S
C1575      N1576   1.340       .  A
N1576      C1577   1.345       .  A
C1577      C1825   1.468       .  S
C1577      N1578   1.375       .  A
C1579      C1994   1.489       .  S
C1579      N2336   1.355       .  A
C1579      N2340   1.379       .  A
N1580      C2335   1.355       .  A
N1580      C1581   1.347       .  A
C1581      C2197   1.437       .  S
C1581      N1582   1.341       .  A
N1582      C1583   1.342       .  A
C1583      C1879   1.476       .  S
C1583      N1584   1.380       .  A
N1584      C2335   1.378       .  A
C1585      N1586   1.356       .  A
C1585      N1590   1.378       .  A
N1586      C1587   1.348       .  A
C1587      C2185   1.436       .  S
C1587      N1588   1.338       .  A
N1588      C1589   1.342       .  A
C1589      C1934   1.472       .  S
C1589      N1590   1.378       .  A
C1591      C1741   1.483       .  S
C1591      N1592   1.375       .  A
C1591      N1596   1.355       .  A
N1592      C1593   1.377       .  A
C1593      C2552   1.467       .  S
C1593      N2350   1.341   1_545  A
N1594      C2349   1.341       .  A
N1594      C1595   1.339       .  A
C1595      C2188   1.435       .  S
C1595      N2352   1.347       .  A
N1596      C2351   1.347   1_545  A
C1597      C1904   1.487       .  S
C1597      N1598   1.375       .  A
C1597      N1602   1.358       .  A
N1598      C1599   1.377       .  A
C1599      C2046   1.470       .  S
C1599      N1600   1.342       .  A
N1600      C1601   1.340       .  A
C1601      C2173   1.441       .  S
C1601      N1602   1.350       .  A
C1603      C1940   1.489       .  S
C1603      N1604   1.358       .  A
C1605      C2176   1.444       .  S
C1605      N1606   1.341       .  A
N1606      C1607   1.345       .  A
C1607      C1775   1.472       .  S
C1607      N1608   1.377       .  A
C1609      C2011   1.483       .  S
C1609      N1610   1.357       .  A
C1609      N1614   1.376       .  A
N1610      C1611   1.349       .  A
C1611      C2161   1.449       .  S
C1611      N1612   1.342       .  A
N1612      C1613   1.344       .  A
C1613      C1851   1.472       .  S
C1613      N1614   1.375       .  A
C1615      C2042   1.488       .  S
C1615      N1616   1.361       .  A
C1615      N1620   1.375       .  A
N1616      C1617   1.353       .  A
C1617      C2164   1.451       .  S
C1617      N1618   1.341       .  A
N1618      C1619   1.340       .  A
C1619      C1903   1.468       .  S
C1619      N1620   1.376       .  A
C1621      C1827   1.494       .  S
C1621      N1622   1.376   1_554  A
C1621      N1626   1.358       .  A
N1622      C1623   1.377       .  A
C1623      C1773   1.478       .  S
C1623      N1624   1.345       .  A
N1624      C1625   1.345   1_556  A
C1625      C2152   1.449       .  S
C1625      N1626   1.354       .  A
C1627      C1829   1.484       .  S
C1627      N1628   1.357       .  A
C1627      N1632   1.377       .  A
N1628      C1629   1.348       .  A
C1629      C2149   1.442       .  S
C1629      N1630   1.338       .  A
N1630      C1631   1.342       .  A
C1631      C1991   1.470       .  S
C1631      N1632   1.377       .  A
C1633      C1882   1.486       .  S
C1633      N1634   1.355       .  A
C1633      N1638   1.375       .  A
N1634      C1635   1.351       .  A
C1635      C2137   1.449       .  S
C1635      N1636   1.344       .  A
N1636      C1637   1.345       .  A
C1637      C2044   1.470       .  S
C1637      N1638   1.375       .  A
C1639      N1640   1.376       .  A
C1639      N1644   1.360       .  A
N1640      C1641   1.377       .  A
C1641      C1989   1.471       .  S
C1641      N1642   1.339       .  A
N1642      C1643   1.341       .  A
C1643      C2140   1.449       .  S
C1643      N1644   1.352       .  A
C1645      C1957   1.488       .  S
N1646      C1647   1.376       .  A
C1647      C1885   1.470       .  S
C1647      N1648   1.344       .  A
N1648      C1649   1.344       .  A
C1649      C2125   1.452       .  S
C1649      N1650   1.352       .  A
C1651      C1988   1.483       .  S
C1651      N1652   1.375       .  A
C1651      N1656   1.359       .  A
N1652      C1653   1.373       .  A
C1653      C1832   1.470       .  S
C1653      N1654   1.343       .  A
N1654      C1655   1.341       .  A
C1655      C2884   1.452       .  S
C1655      N1656   1.351       .  A
C1657      C1849   1.483       .  S
C1657      N1658   1.359       .  A
C1657      N1662   1.374       .  A
N1658      C1659   1.352       .  A
C1659      C2113   1.453       .  S
C1659      N1660   1.339       .  A
N1660      C1661   1.338       .  A
C1661      C1993   1.460       .  S
C1661      N1662   1.373       .  A
C1663      C1880   1.487       .  S
C1663      N1664   1.376       .  A
C1663      N1668   1.358       .  A
N1664      C1665   1.374       .  A
C1665      C2804   1.473       .  S
C1665      N2422   1.344   1_545  A
N1666      C2421   1.344       .  A
N1666      C1667   1.342       .  A
C1667      C2116   1.455       .  S
C1667      N2424   1.351       .  A
N1668      C2423   1.352   1_545  A
C1669      C1935   1.486       .  S
C1669      N1670   1.378       .  A
C1669      N1674   1.357       .  A
N1670      C1671   1.377       .  A
C1671      C1743   1.478       .  S
C1671      N1672   1.346       .  A
N1672      C1673   1.341       .  A
C1673      C2101   1.445       .  S
C1673      N1674   1.348       .  A
C1675      C1937   1.491       .  S
C1675      N1676   1.375       .  A
C1675      N1680   1.356       .  A
N1676      C1677   1.378       .  A
C1677      C2012   1.474       .  S
C1677      N1678   1.345       .  A
N1678      C1679   1.343       .  A
C1679      C2860   1.443       .  S
C1679      N1680   1.350       .  A
C1681      C2045   1.487       .  S
C1681      N1682   1.357       .  A
C1681      N1686   1.376       .  A
N1682      C1683   1.350       .  A
C1683      C2089   1.448       .  S
C1683      N1684   1.341       .  A
N1684      C1685   1.342       .  A
C1685      C1883   1.472       .  S
C1685      N1686   1.376       .  A
C1687      C2043   1.493       .  S
C1687      N1688   1.376       .  A
C1687      N1692   1.359       .  A
N1688      C1689   1.377       .  A
C1689      C1905   1.473       .  S
C1689      N1690   1.342       .  A
N1690      C1691   1.342       .  A
C1691      C2092   1.451       .  S
C1691      N1692   1.353       .  A
C1693      C1992   1.493       .  S
C1693      N1694   1.360       .  A
C1693      N1698   1.376       .  A
N1694      C1695   1.353       .  A
C1695      C2077   1.449       .  S
C1695      N1696   1.343       .  A
N1696      C1697   1.342       .  A
C1697      C1881   1.474       .  S
C1697      N1698   1.377       .  A
C1699      C1990   1.488       .  S
C1699      N1700   1.356       .  A
C1699      N1704   1.375       .  A
N1700      C1701   1.351       .  A
C1701      N1702   1.342       .  A
N1702      C1703   1.342       .  A
C1703      C1828   1.469       .  S
C1703      N1704   1.376       .  A
C1705      C1826   1.489       .  S
C1705      N1706   1.356       .  A
C1705      N1710   1.374   1_554  A
N1706      C1707   1.350       .  A
C1707      C2068   1.445       .  S
C1707      N1708   1.344   1_554  A
N1708      C1709   1.343       .  A
C1709      C1777   1.471       .  S
C1709      N1710   1.377       .  A
C1711      C1795   1.479       .  S
C1711      N1712   1.356       .  A
C1711      N1716   1.375       .  A
N1712      C1713   1.348       .  A
C1713      C2065   1.445       .  S
C1713      N1714   1.341       .  A
N1714      C1715   1.343       .  A
C1715      C1959   1.469       .  S
C1715      N1716   1.374       .  A
C1717      C1774   1.488       .  S
C1717      N1718   1.357       .  A
C1717      N1722   1.378       .  A
N1718      C1719   1.349       .  A
C1719      C2053   1.439       .  S
C1719      N1720   1.339       .  A
N1720      C1721   1.343       .  A
C1721      C1939   1.472       .  S
C1721      N1722   1.377       .  A
C1723      C1776   1.490       .  S
C1723      N1724   1.357       .  A
C1723      N1728   1.376       .  A
C1725      C2056   1.440       .  S
C1725      N1726   1.342       .  A
C1727      N1728   1.378       .  A
O1729      C1740   1.305       .  A
O1729     Eu1765   2.519       .  S
O1730      C1741   1.292       .  A
O1730     Eu1764   2.478       .  S
O1731      C1742   1.291       .  A
O1731     Eu1737   2.474       .  S
O1732      C1743   1.305       .  A
O1732     Eu1737   2.523       .  S
O1733      C1743   1.284       .  A
O1733     Eu1767   2.427       .  S
O1734      C1742   1.299       .  A
O1734     Eu1766   2.486       .  S
O1735      C1741   1.299       .  A
O1735     Eu1737   2.487       .  S
O1736      C1740   1.283       .  A
O1736     Eu1737   2.420       .  S
Eu1737     O1747   2.363       .  S
Eu1737     O1739   2.369       .  S
Eu1737     O1738   2.326       .  S
Eu1737     O1745   2.365       .  S
O1738     Eu1767   2.368       .  S
O1738     Eu1764   2.347       .  S
O1739     Eu1765   2.329       .  S
O1739     Eu1766   2.344       .  S
C1742      C2281   1.486   1_545  S
H1744      O1745   0.965       .  S
O1745     Eu1766   2.328       .  S
O1745     Eu1764   2.383       .  S
H1746      O1747   0.965       .  S
O1747     Eu1765   2.368       .  S
O1747     Eu1767   2.362       .  S
O1748      C1771   1.309       .  A
O1748     Eu1764   2.541       .  S
O1749      C1772   1.291   1_655  A
O1749     Eu1765   2.476       .  S
O1750      C1773   1.309       .  A
O1750     Eu1766   2.547       .  S
O1751      C1774   1.291       .  A
O1751     Eu1767   2.476       .  S
O1752      C1775   1.306       .  A
O1752     Eu1767   2.524       .  S
O1753      C1776   1.294       .  A
O1753     Eu1766   2.494       .  S
O1754      C1777   1.309       .  A
O1754     Eu1768   2.544       .  S
O1755      C1778   1.292       .  A
O1755     Eu1768   2.475       .  S
O1756      C1777   1.278       .  A
O1756     Eu1766   2.391       .  S
O1757      C1778   1.298       .  A
O1757     Eu1767   2.484       .  S
O1758      C1773   1.281       .  A
O1758     Eu1764   2.410       .  S
O1759      C1776   1.299       .  A
O1759     Eu1765   2.490       .  S
O1760      C1775   1.282       .  A
O1760     Eu1765   2.413       .  S
O1761      C1774   1.300       .  A
O1761     Eu1764   2.493       .  S
O1762      C1771   1.279       .  A
O1762     Eu1768   2.393       .  S
O1763      C1772   1.299   1_655  A
O1763     Eu1768   2.490       .  S
Eu1764     O1782   2.330       .  S
Eu1764     O1770   2.350       .  S
Eu1765     O1769   2.369       .  S
Eu1765     O1780   2.358       .  S
Eu1766     O1780   2.381       .  S
Eu1766     O1770   2.351       .  S
Eu1767     O1769   2.335       .  S
Eu1767     O1782   2.368       .  S
Eu1768     O1769   2.347       .  S
Eu1768     O1780   2.317       .  S
Eu1768     O1782   2.384       .  S
Eu1768     O1770   2.350       .  S
H1779      O1780   0.963       .  S
H1781      O1782   0.963       .  S
O1783      C1794   1.308       .  A
O1783     Eu1819   2.534       .  S
O1784      C1795   1.289       .  A
O1784     Eu1818   2.467       .  S
O1785      C1796   1.310       .  A
O1785     Eu1791   2.549       .  S
O1786      C1797   1.295   1_556  A
O1787      C1797   1.298       .  A
O1787     Eu1821   2.484       .  S
O1788      C2552   1.277       .  A
O1788     Eu1820   2.381       .  S
O1789      C1795   1.297       .  A
O1789     Eu1791   2.476   1_554  S
O1790      C1794   1.278       .  A
Eu1791     O1793   2.354       .  S
Eu1791     O1792   2.345   1_556  S
Eu1791     O1799   2.324   1_556  S
O1792     Eu1818   2.369       .  S
O1793     Eu2576   2.357       .  S
C1796      C2349   1.469       .  S
C1796      O2544   1.277       .  A
H1798      O1799   0.962   1_556  S
O1799     Eu2576   2.378   1_554  S
O1799     Eu1818   2.353       .  S
H1800      O1801   0.965   1_556  S
O1801     Eu1819   2.325   1_554  S
O1801     Eu1821   2.361       .  S
O1802      C1825   1.304       .  A
O1802     Eu2574   2.516   1_545  S
O1803      C1826   1.294   1_556  A
O1803     Eu2575   2.492   1_545  S
O1804      C1827   1.295   1_556  A
O1804     Eu1820   2.502       .  S
O1805     Eu1821   2.535   1_455  S
O1806      C1829   1.291       .  A
O1806     Eu1821   2.474       .  S
O1807      C1830   1.310       .  A
O1807     Eu1820   2.547       .  S
O1808      C1831   1.292       .  A
O1808     Eu1822   2.479       .  S
O1809      C2588   1.304       .  A
O1810      C1831   1.295       .  A
O1810     Eu1820   2.469   1_554  S
O1811      C1832   1.282       .  A
O1811     Eu1821   2.416       .  S
O1812      C1827   1.299       .  A
O1812     Eu2574   2.489   1_545  S
O1813     Eu2575   2.407   1_545  S
O1814      C1829   1.298       .  A
O1814     Eu1819   2.483   1_554  S
O1815      C1828   1.280       .  A
O1815     Eu1818   2.400       .  S
O1816      C1825   1.282       .  A
O1816     Eu1822   2.413       .  S
O1817      C1826   1.299       .  A
Eu1818     O2558   2.517       .  S
Eu1818     O2568   2.486       .  S
Eu1818     O1836   2.364       .  S
Eu1818     O2580   2.327       .  S
Eu1819     O2559   2.495       .  S
Eu1819     O2569   2.398       .  S
Eu1819     O1823   2.346   1_556  S
Eu1820     O2549   2.356   1_545  S
Eu1820     O2555   2.378   1_546  S
Eu1820     O1834   2.323   1_556  S
Eu1820     O1824   2.345   1_556  S
Eu1821     O1823   2.374       .  S
Eu1822     O1834   2.353       .  S
Eu1822     O2592   2.362   1_545  S
Eu1822     O1824   2.368       .  S
O1824     Eu2574   2.325   1_545  S
C1832      O2565   1.304       .  A
H1833      O1834   0.961   1_556  S
H1835      O1836   0.963       .  S
O1836     Eu2578   2.364       .  S
O1837      C1848   1.309       .  A
O1837     Eu1873   2.541       .  S
O1838      C1849   1.292       .  A
O1838     Eu1872   2.474       .  S
O1839      C1850   1.293       .  A
O1839     Eu1845   2.490       .  S
O1840      C1851   1.305       .  A
O1840     Eu1845   2.521       .  S
O1841      C1851   1.283       .  A
O1841     Eu1875   2.420       .  S
O1842      C1850   1.299       .  A
O1842     Eu1874   2.493       .  S
O1843      C1849   1.300       .  A
O1843     Eu1845   2.493       .  S
O1844      C1848   1.283       .  A
O1844     Eu1845   2.418       .  S
Eu1845     O1855   2.366       .  S
Eu1845     O1847   2.370       .  S
Eu1845     O1846   2.334       .  S
Eu1845     O1853   2.365       .  S
O1846     Eu1875   2.369       .  S
O1846     Eu1872   2.345       .  S
O1847     Eu1873   2.329       .  S
O1847     Eu1874   2.346       .  S
H1852      O1853   0.964       .  S
O1853     Eu1874   2.328       .  S
O1853     Eu1872   2.390       .  S
H1854      O1855   0.964       .  S
O1855     Eu1873   2.363       .  S
O1855     Eu1875   2.365       .  S
O1856      C1879   1.311       .  A
O1856     Eu1872   2.552       .  S
O1857      C1880   1.292       .  A
O1857     Eu1873   2.479       .  S
O1858      C1881   1.310       .  A
O1858     Eu1874   2.548       .  S
O1859      C1882   1.290       .  A
O1859     Eu1875   2.472       .  S
O1860      C1883   1.308       .  A
O1860     Eu1875   2.533       .  S
O1861      C1884   1.294   1_655  A
O1861     Eu1874   2.493       .  S
O1862      C1885   1.309       .  A
O1862     Eu1876   2.546       .  S
O1863      C1886   1.293       .  A
O1863     Eu1876   2.487       .  S
O1864      C1885   1.279       .  A
O1864     Eu1874   2.390       .  S
O1865      C1886   1.302       .  A
O1865     Eu1875   2.506       .  S
O1866      C1881   1.280       .  A
O1866     Eu1872   2.398       .  S
O1867      C1884   1.300   1_655  A
O1867     Eu1873   2.494       .  S
O1868      C1883   1.281       .  A
O1868     Eu1873   2.404       .  S
O1869      C1882   1.299       .  A
O1869     Eu1872   2.489       .  S
O1870      C1879   1.279       .  A
O1870     Eu1876   2.394       .  S
O1871      C1880   1.298       .  A
O1871     Eu1876   2.485       .  S
Eu1872     O1890   2.321       .  S
Eu1872     O1878   2.346       .  S
Eu1873     O1877   2.372       .  S
Eu1873     O1888   2.359       .  S
Eu1874     O1888   2.379       .  S
Eu1874     O1878   2.353       .  S
Eu1875     O1877   2.326       .  S
Eu1875     O1890   2.363       .  S
Eu1876     O1877   2.348       .  S
Eu1876     O1888   2.323       .  S
Eu1876     O1890   2.381       .  S
Eu1876     O1878   2.349       .  S
C1886      C2323   1.494   1_545  S
H1887      O1888   0.963       .  S
H1889      O1890   0.963       .  S
O1891      C1902   1.292       .  A
O1891     Eu1927   2.483       .  S
O1892      C1903   1.310       .  A
O1892     Eu1926   2.547       .  S
O1893      C1904   1.293       .  A
O1893     Eu1899   2.489       .  S
O1894      C1905   1.311       .  A
O1894     Eu1899   2.554       .  S
O1895      C1905   1.278       .  A
O1895     Eu1929   2.389       .  S
O1896      C1904   1.298       .  A
O1896     Eu1928   2.486       .  S
O1897      C1903   1.278       .  A
O1897     Eu1899   2.385       .  S
O1898      C1902   1.298       .  A
O1898     Eu1899   2.486       .  S
Eu1899     O1909   2.326       .  S
Eu1899     O1901   2.340       .  S
Eu1899     O1900   2.349       .  S
Eu1899     O1907   2.385       .  S
O1900     Eu1929   2.351       .  S
O1900     Eu1926   2.349       .  S
O1901     Eu1927   2.363       .  S
O1901     Eu1928   2.322       .  S
H1906      O1907   0.963       .  S
O1907     Eu1928   2.360       .  S
O1907     Eu1926   2.325       .  S
H1908      O1909   0.961       .  S
O1909     Eu1927   2.366       .  S
O1909     Eu1929   2.385       .  S
O1910      C1933   1.294       .  A
O1910     Eu1926   2.490       .  S
O1911      C1934   1.307       .  A
O1911     Eu1927   2.530       .  S
O1912      C1935   1.290       .  A
O1912     Eu1928   2.475       .  S
O1913      C1936   1.308       .  A
O1913     Eu1929   2.539       .  S
O1914      C1937   1.294       .  A
O1914     Eu1929   2.493       .  S
O1915      C1938   1.305       .  A
O1915     Eu1928   2.520       .  S
O1916      C1939   1.306       .  A
O1916     Eu1930   2.524       .  S
O1917      C1940   1.292       .  A
O1917     Eu1930   2.483       .  S
O1918      C1939   1.282       .  A
O1918     Eu1928   2.411       .  S
O1919      C1940   1.298       .  A
O1919     Eu1929   2.484       .  S
O1920      C1935   1.299       .  A
O1920     Eu1926   2.485       .  S
O1921      C1938   1.283       .  A
O1921     Eu1927   2.419       .  S
O1922      C1937   1.300       .  A
O1922     Eu1927   2.490       .  S
O1923      C1936   1.279       .  A
O1923     Eu1926   2.394       .  S
O1924      C1933   1.299       .  A
O1924     Eu1930   2.485       .  S
O1925      C1934   1.281       .  A
O1925     Eu1930   2.406       .  S
Eu1926     O1944   2.384       .  S
Eu1926     O1932   2.343       .  S
Eu1927     O1931   2.331       .  S
Eu1927     O1942   2.363       .  S
Eu1928     O1942   2.362       .  S
Eu1928     O1932   2.366       .  S
Eu1929     O1931   2.345       .  S
Eu1929     O1944   2.327       .  S
Eu1930     O1931   2.370       .  S
Eu1930     O1942   2.364       .  S
Eu1930     O1944   2.358       .  S
Eu1930     O1932   2.327       .  S
H1941      O1942   0.965       .  S
H1943      O1944   0.964       .  S
O1945      C1956   1.304       .  A
O1945     Eu1981   2.517       .  S
O1946      C1957   1.293       .  A
O1946     Eu1980   2.486       .  S
O1947      C1958   1.292       .  A
O1947     Eu1953   2.481       .  S
O1948      C1959   1.305       .  A
O1948     Eu1953   2.519       .  S
O1949      C1959   1.282       .  A
O1949     Eu1983   2.414       .  S
O1950      C1958   1.296       .  A
O1950     Eu1982   2.473       .  S
O1951      C1957   1.299       .  A
O1951     Eu1953   2.490       .  S
O1952      C1956   1.281       .  A
O1952     Eu1953   2.407       .  S
Eu1953     O1963   2.364       .  S
Eu1953     O1955   2.373       .  S
Eu1953     O1954   2.327       .  S
Eu1953     O1961   2.355       .  S
O1954     Eu1983   2.368       .  S
O1954     Eu1980   2.343       .  S
O1955     Eu1981   2.333       .  S
O1955     Eu1982   2.344       .  S
H1960      O1961   0.964       .  S
O1961     Eu1982   2.324       .  S
O1961     Eu1980   2.383       .  S
H1962      O1963   0.964       .  S
O1963     Eu1981   2.363       .  S
O1963     Eu1983   2.361       .  S
O1964      C1987   1.311       .  A
O1964     Eu1980   2.554       .  S
O1965      C1988   1.291       .  A
O1965     Eu1981   2.480       .  S
O1966      C1989   1.311       .  A
O1966     Eu1982   2.551       .  S
O1967      C1990   1.291       .  A
O1967     Eu1983   2.477       .  S
O1968      C1991   1.308       .  A
O1968     Eu1983   2.535       .  S
O1969      C1992   1.296       .  A
O1969     Eu1982   2.505       .  S
O1970      C1993   1.308       .  A
O1970     Eu1984   2.538       .  S
O1971      C1994   1.291       .  A
O1971     Eu1984   2.480       .  S
O1972      C1993   1.276       .  A
O1972     Eu1982   2.372       .  S
O1973      C1994   1.302       .  A
O1973     Eu1983   2.500       .  S
O1974      C1989   1.278       .  A
O1974     Eu1980   2.388       .  S
O1975      C1992   1.299       .  A
O1975     Eu1981   2.487       .  S
O1976      C1991   1.280       .  A
O1976     Eu1981   2.400       .  S
O1977      C1990   1.299       .  A
O1977     Eu1980   2.489       .  S
O1978      C1987   1.277       .  A
O1978     Eu1984   2.383       .  S
O1979      C1988   1.296       .  A
O1979     Eu1984   2.473       .  S
Eu1980     O1998   2.321       .  S
Eu1980     O1986   2.349       .  S
Eu1981     O1985   2.366       .  S
Eu1981     O1996   2.350       .  S
Eu1982     O1996   2.379       .  S
Eu1982     O1986   2.355       .  S
Eu1983     O1985   2.323       .  S
Eu1983     O1998   2.364       .  S
Eu1984     O1985   2.344       .  S
Eu1984     O1996   2.315       .  S
Eu1984     O1998   2.380       .  S
Eu1984     O1986   2.349       .  S
H1995      O1996   0.962       .  S
H1997      O1998   0.962       .  S
O1999     Eu2791   2.561   1_445  S
O2000      C2011   1.289       .  A
O2000     Eu2790   2.463   1_545  S
O2001      C2768   1.311       .  A
O2001     Eu2007   2.556   1_565  S
O2002      C2013   1.293       .  A
O2002     Eu2007   2.485       .  S
O2003      C2013   1.299       .  A
O2003     Eu2037   2.486       .  S
O2004      C2012   1.279       .  A
O2004     Eu2036   2.395       .  S
O2005      C2011   1.298       .  A
O2005     Eu2007   2.486       .  S
O2006      C2010   1.278       .  A
O2006     Eu2007   2.391       .  S
Eu2007     O2017   2.386       .  S
Eu2007     O2765   2.347   1_545  S
Eu2007     O2008   2.345       .  S
Eu2007     O2771   2.324   1_545  S
O2008     Eu2037   2.332       .  S
O2008     Eu2790   2.366   1_545  S
O2009     Eu2763   2.348       .  S
O2009     Eu2036   2.353       .  S
C2012      O2757   1.310       .  A
H2014      O2015   0.964       .  S
O2015     Eu2763   2.323       .  S
O2015     Eu2036   2.380       .  S
O2015     Eu2034   2.361       .  S
H2016      O2017   0.962       .  S
O2017     Eu2037   2.367       .  S
O2018      C2041   1.306       .  A
O2018     Eu2034   2.524       .  S
O2019      C2042   1.294       .  A
O2019     Eu2035   2.491       .  S
O2020      C2043   1.295       .  A
O2020     Eu2036   2.499       .  S
O2021      C2044   1.305       .  A
O2021     Eu2037   2.521       .  S
O2022      C2045   1.291       .  A
O2023      C2046   1.310       .  A
O2024      C2047   1.291       .  A
O2024     Eu2038   2.475       .  S
O2025      C2048   1.304       .  A
O2025     Eu2038   2.516       .  S
O2026      C2047   1.300       .  A
O2027      C2804   1.283       .  A
O2028      C2043   1.299       .  A
O2028     Eu2034   2.487       .  S
O2029      C2046   1.279       .  A
O2029     Eu2035   2.390       .  S
O2030      C2045   1.298       .  A
O2030     Eu2791   2.482   1_545  S
O2031      C2044   1.281       .  A
O2031     Eu2790   2.411   1_545  S
O2032     Eu2038   2.415       .  S
O2033      C2042   1.298       .  A
O2033     Eu2038   2.487       .  S
Eu2034     O2756   2.468       .  S
Eu2034     O2787   2.409       .  S
Eu2034     O2764   2.366       .  S
Eu2034     O2052   2.362       .  S
Eu2034     O2040   2.331       .  S
Eu2035     O2755   2.559   1_655  S
Eu2035     O2786   2.484       .  S
Eu2035     O2039   2.347       .  S
Eu2035     O2050   2.383       .  S
Eu2036     O2040   2.346       .  S
Eu2037     O2808   2.363   1_545  S
Eu2038     O2039   2.330       .  S
Eu2038     O2050   2.359       .  S
C2048      C2421   1.473       .  S
C2048      O2783   1.283       .  A
H2049      O2050   0.964       .  S
H2051      O2052   0.962       .  S
O2052     Eu2793   2.363       .  S
C2053      C2054   1.396       .  A
C2053      C2058   1.409       .  A
C2054      C2055   1.389       .  A
C2054      H2063   1.085       .  S
C2055      C2056   1.410       .  A
C2055      S2059   1.805       .  S
C2056      C2057   1.397       .  A
C2057      C2058   1.389       .  A
C2057      H2064   1.084       .  S
C2058      S2060   1.805       .  S
S2059      H2062   1.403       .  S
S2060      H2061   1.405       .  S
C2065      C2066   1.400       .  A
C2065      C2070   1.408       .  A
C2066      C2067   1.390       .  A
C2066      H2075   1.085       .  S
C2067      S2071   1.802       .  S
C2068      C2069   1.400   1_655  A
C2069      H2076   1.085       .  S
C2070      S2072   1.807       .  S
S2072      H2073   1.407       .  S
C2077      C2078   1.400       .  A
C2077      C2082   1.408       .  A
C2078      C2079   1.392       .  A
C2078      H2087   1.084       .  S
C2079      C2080   1.411       .  A
C2079      S2083   1.806       .  S
C2080      C2081   1.399       .  A
C2081      C2082   1.387       .  A
C2081      H2088   1.085       .  S
C2082      S2084   1.804       .  S
S2083      H2086   1.406   1_655  S
S2084      H2085   1.406       .  S
C2089      C2090   1.399   1_545  A
C2089      C2850   1.409       .  A
C2090      C2847   1.391       .  A
C2090      H2099   1.085       .  S
C2091      C2846   1.390       .  A
C2091      C2092   1.411       .  A
C2091      S2095   1.804       .  S
C2092      C2093   1.400       .  A
C2093      C2094   1.390       .  A
C2093      H2100   1.085       .  S
C2094      C2845   1.408       .  A
C2094      S2096   1.806       .  S
S2095      H2098   1.406       .  S
S2096      H2853   1.407       .  S
H2097      S2852   1.407       .  S
C2101      C2102   1.396       .  A
C2101      C2106   1.407       .  A
C2102      C2103   1.391       .  A
C2102      H2111   1.083       .  S
C2103      C2104   1.408       .  A
C2103      S2107   1.810       .  S
C2104      C2435   1.443   1_545  S
C2104      C2105   1.397       .  A
C2105      C2106   1.395       .  A
C2105      H2112   1.083       .  S
C2106      S2108   1.806       .  S
S2107      H2110   1.407       .  S
S2108      H2109   1.407       .  S
C2113      C2114   1.407       .  A
C2113      C2118   1.404       .  A
C2114      C2115   1.387       .  A
C2114      H2123   1.084       .  S
C2115      C2116   1.405       .  A
C2115      S2119   1.804       .  S
C2116      C2117   1.407       .  A
C2117      C2118   1.389       .  A
C2117      H2124   1.084       .  S
C2118      S2120   1.804       .  S
S2119      H2122   1.407       .  S
S2120      H2121   1.407       .  S
C2125      C2126   1.399       .  A
C2125      C2130   1.411       .  A
C2126      C2127   1.390       .  A
C2126      H2135   1.085   1_655  S
C2127      C2128   1.410       .  A
C2127      S2131   1.806   1_655  S
C2128      C2411   1.453   1_545  S
C2128      C2129   1.400       .  A
C2129      C2130   1.393       .  A
C2129      H2136   1.084       .  S
C2130      S2132   1.805       .  S
S2131      H2134   1.407   1_455  S
S2132      H2133   1.406       .  S
C2137      C2138   1.398       .  A
C2137      C2142   1.409       .  A
C2138      C2139   1.386       .  A
C2138      H2147   1.085       .  S
C2139      C2140   1.410       .  A
C2139      S2143   1.804       .  S
C2140      C2141   1.401       .  A
C2141      C2142   1.393       .  A
C2141      H2148   1.084       .  S
C2142      S2144   1.804       .  S
S2143      H2146   1.406       .  S
S2144      H2145   1.407       .  S
C2149      C2150   1.395       .  A
C2149      C2154   1.407       .  A
C2150      C2151   1.390       .  A
C2150      H2159   1.084       .  S
C2151      C2908   1.408       .  A
C2151      S2155   1.807       .  S
C2152      C2907   1.408   1_545  A
C2152      C2153   1.401       .  A
C2153      C2910   1.396       .  A
C2153      H2160   1.083       .  S
C2154      C2909   1.396       .  A
C2154      S2912   1.807       .  S
S2155      H2158   1.407       .  S
S2156      C2910   1.807       .  S
S2156      H2913   1.407       .  S
H2157      S2912   1.407       .  S
C2161      C2162   1.398       .  A
C2161      C2166   1.409       .  A
C2162      C2163   1.390       .  A
C2162      H2171   1.085       .  S
C2163      C2164   1.411       .  A
C2163      S2167   1.806       .  S
C2164      C2165   1.400       .  A
C2165      C2166   1.392       .  A
C2165      H2172   1.084       .  S
C2166      S2168   1.806       .  S
S2167      H2170   1.406       .  S
S2168      H2169   1.407       .  S
C2173      C2174   1.396       .  A
C2173      C2178   1.411       .  A
C2174      C2175   1.388       .  A
C2174      H2183   1.085       .  S
C2175      C2176   1.410       .  A
C2175      S2179   1.805   1_655  S
C2176      C2177   1.398       .  A
C2177      C2178   1.392       .  A
C2177      H2184   1.084       .  S
C2178      S2180   1.806       .  S
S2179      H2182   1.404       .  S
S2180      H2181   1.402       .  S
C2185      C2186   1.398       .  A
C2185      C2190   1.411       .  A
C2186      C2187   1.387       .  A
C2186      H2195   1.085       .  S
C2187      C2188   1.406       .  A
C2187      S2191   1.803       .  S
C2188      C2189   1.395       .  A
C2189      C2190   1.387       .  A
C2189      H2196   1.085       .  S
C2190      S2192   1.809       .  S
S2191      H2194   1.405       .  S
S2192      H2193   1.400       .  S
C2197      C2198   1.395       .  A
C2197      C2202   1.409       .  A
C2198      C2199   1.390       .  A
C2198      H2207   1.084       .  S
C2199      C2200   1.408       .  A
C2199      S2203   1.808       .  S
C2200      C2201   1.397       .  A
C2201      C2202   1.390       .  A
C2201      H2208   1.084       .  S
C2202      S2204   1.806   1_545  S
S2203      H2206   1.407       .  S
S2204      H2205   1.405       .  S
C2209      C2210   1.397       .  A
C2209      C2214   1.410       .  A
C2210      C2211   1.387       .  A
C2210      H2219   1.085       .  S
C2211      C2212   1.409       .  A
C2211      S2215   1.804       .  S
C2212      C2213   1.399       .  A
C2213      C2214   1.392       .  A
C2213      H2220   1.084       .  S
C2214      S2216   1.804       .  S
S2215      H2218   1.406       .  S
S2216      H2217   1.406       .  S
C2221      C2222   1.398       .  A
C2221      C2226   1.410       .  A
C2222      C2223   1.388       .  A
C2222      H2231   1.085       .  S
C2223      C2224   1.410       .  A
C2223      S2227   1.806       .  S
C2224      C2225   1.401       .  A
C2225      C2226   1.394       .  A
C2225      H2232   1.084       .  S
C2226      S2228   1.803       .  S
S2227      H2230   1.407       .  S
S2228      H2229   1.404       .  S
C2233      C2234   1.396       .  A
C2234      H2243   1.085       .  S
C2235      C2236   1.410       .  A
C2236      C2237   1.397       .  A
C2237      C2238   1.388       .  A
C2237      H2244   1.085       .  S
C2238      S2240   1.802       .  S
S2240      H2241   1.406       .  S
C2245      C2246   1.393       .  A
C2245      C2250   1.413       .  A
C2246      C2247   1.385       .  A
C2246      H2255   1.085       .  S
C2247      C2248   1.413       .  A
C2247      S2251   1.807       .  S
C2248      C2249   1.395       .  A
C2249      C2250   1.390       .  A
C2249      H2256   1.084       .  S
C2250      S2252   1.805       .  S
S2251      H2254   1.407       .  S
S2252      H2253   1.407       .  S
C2257      C2258   1.399       .  A
C2257      C2262   1.410       .  A
C2258      C2259   1.389       .  A
C2258      H2267   1.085       .  S
C2259      C2260   1.411       .  A
C2259      S2263   1.806       .  S
C2260      C2261   1.400       .  A
C2261      C2262   1.392       .  A
C2261      H2268   1.084   1_545  S
S2263      H2266   1.407       .  S
S2264      H2265   1.407   1_565  S
C2269      C2658   1.488       .  S
N2270      C2271   1.375       .  A
C2271      C2496   1.474       .  S
C2271      N2272   1.342       .  A
N2272      C2273   1.341       .  A
C2273      C3016   1.451       .  S
C2273      N2274   1.351       .  A
C2275      C2689   1.488       .  S
C2275      N2276   1.357       .  A
C2275      N2280   1.376       .  A
N2276      C2277   1.351       .  A
C2277      N2278   1.343       .  A
N2278      C2279   1.341       .  A
C2279      C2766   1.474       .  S
C2279      N2280   1.377       .  A
C2281      N2282   1.377       .  A
C2281      N2286   1.357       .  A
N2282      C2283   1.376       .  A
C2283      C2694   1.472       .  S
C2283      N2284   1.343       .  A
N2284      C2285   1.340       .  A
C2285      C3001   1.444       .  S
C2285      N2286   1.349       .  A
C2287      C2534   1.480       .  S
C2287      N2288   1.374       .  A
C2287      N2292   1.356       .  A
N2288      C2289   1.374       .  A
C2289      C2550   1.464       .  S
C2289      N2290   1.340       .  A
N2290      C2291   1.339       .  A
C2291      C3004   1.440       .  S
C2291      N2292   1.348       .  A
C2293      C2803   1.491       .  S
C2293      N2294   1.356       .  A
C2293      N2298   1.379       .  A
N2294      C2295   1.349       .  A
C2295      C2989   1.443       .  S
C2295      N2296   1.341       .  A
N2296      C2297   1.344       .  A
C2297      C2604   1.479       .  S
C2297      N2298   1.380       .  A
C2299      C2769   1.484       .  S
C2299      N2300   1.357       .  A
C2299      N2304   1.375       .  A
N2300      C2301   1.349       .  A
C2301      C2992   1.440       .  S
C2301      N2302   1.340       .  A
N2302      C2303   1.342       .  A
C2303      C2692   1.470       .  S
C2303      N2304   1.376       .  A
C2305      C2553   1.491       .  S
C2305      N2306   1.359       .  A
C2305      N2310   1.374   1_554  A
N2306      C2307   1.354       .  A
C2307      C2977   1.452       .  S
C2307      N2308   1.345   1_554  A
N2308      C2309   1.345       .  A
C2309      C2527   1.471       .  S
C2309      N2310   1.376       .  A
C2311      C2587   1.484       .  S
C2311      N2312   1.361       .  A
C2311      N2316   1.375       .  A
N2312      C2313   1.352       .  A
C2313      C2980   1.454       .  S
C2313      N2314   1.340       .  A
N2314      C2315   1.342       .  A
C2315      C2712   1.468       .  S
C2315      N2316   1.373       .  A
C2317      C2606   1.493       .  S
C2317      N2318   1.378       .  A
C2317      N2322   1.358       .  A
N2318      C2319   1.379       .  A
N2320      C2321   1.340       .  A
C2321      C2965   1.445       .  S
C2323      N2324   1.356       .  A
C2323      N2328   1.377       .  A
N2324      C2325   1.352       .  A
C2325      C2968   1.443       .  S
C2325      N2326   1.341       .  A
N2326      C2327   1.342       .  A
C2327      C2743   1.472       .  S
C2327      N2328   1.379       .  A
C2329      C2714   1.485       .  S
C2329      N2330   1.357       .  A
C2329      N2334   1.375       .  A
N2330      C2331   1.349       .  A
C2331      C2956   1.442       .  S
C2331      N2332   1.340       .  A
N2332      C2333   1.344       .  A
C2333      C2581   1.468       .  S
C2333      N2334   1.375       .  A
C2335      C2750   1.489   1_545  S
N2336      C2337   1.347       .  A
C2337      C2953   1.437       .  S
C2337      N2338   1.341       .  A
N2338      C2339   1.342       .  A
C2339      C2635   1.477       .  S
C2339      N2340   1.380       .  A
C2341      N2342   1.356       .  A
C2341      N2346   1.378       .  A
N2342      C2343   1.348       .  A
C2343      C2941   1.435       .  S
C2343      N2344   1.338       .  A
N2344      C2345   1.341       .  A
C2345      C2690   1.470       .  S
C2345      N2346   1.377       .  A
C2347      C2497   1.485       .  S
C2347      N2348   1.376       .  A
C2347      N2352   1.356       .  A
N2348      C2349   1.378       .  A
N2350      C2351   1.339       .  A
C2351      C2944   1.435       .  S
C2353      C2660   1.488       .  S
C2353      N2354   1.375       .  A
C2353      N2358   1.358       .  A
N2354      C2355   1.377       .  A
C2355      C2802   1.467       .  S
C2355      N2356   1.341       .  A
N2356      C2357   1.339       .  A
C2357      C2929   1.440       .  S
C2357      N2358   1.350       .  A
C2359      C2696   1.490       .  S
C2359      N2360   1.358       .  A
C2361      C2932   1.443       .  S
C2361      N2362   1.341       .  A
N2362      C2363   1.345       .  A
C2363      C2531   1.472       .  S
C2363      N2364   1.376       .  A
C2365      C2767   1.484       .  S
C2365      N2366   1.357       .  A
C2365      N2370   1.376       .  A
N2366      C2367   1.350       .  A
C2367      C2917   1.450       .  S
C2367      N2368   1.342       .  A
N2368      C2369   1.344       .  A
C2369      C2607   1.472       .  S
C2369      N2370   1.375       .  A
C2371      C2798   1.488       .  S
C2371      N2372   1.360       .  A
C2371      N2376   1.375       .  A
N2372      C2373   1.352       .  A
C2373      C2920   1.452       .  S
C2373      N2374   1.341       .  A
N2374      C2375   1.341       .  A
C2375      C2659   1.468       .  S
C2375      N2376   1.376       .  A
C2377      C2583   1.492       .  S
C2377      N2378   1.375   1_554  A
C2377      N2382   1.358       .  A
N2378      C2379   1.376       .  A
C2379      C2529   1.475       .  S
C2379      N2380   1.345       .  A
N2380      C2381   1.344   1_556  A
C2381      C2908   1.448       .  S
C2381      N2382   1.353       .  A
C2383      C2585   1.484       .  S
C2383      N2384   1.357       .  A
C2383      N2388   1.377       .  A
N2384      C2385   1.348       .  A
C2385      C2905   1.441       .  S
C2385      N2386   1.337       .  A
N2386      C2387   1.340       .  A
C2387      C2747   1.469       .  S
C2387      N2388   1.377       .  A
C2389      C2638   1.486       .  S
C2389      N2390   1.355       .  A
C2389      N2394   1.375       .  A
N2390      C2391   1.350       .  A
C2391      C2893   1.447       .  S
C2391      N2392   1.344       .  A
N2392      C2393   1.345       .  A
C2393      C2800   1.471       .  S
C2393      N2394   1.375       .  A
C2395      N2396   1.375       .  A
C2395      N2400   1.360       .  A
N2396      C2397   1.376       .  A
C2397      C2745   1.469       .  S
C2397      N2398   1.339       .  A
N2398      C2399   1.341       .  A
C2399      C2896   1.449       .  S
C2399      N2400   1.352       .  A
C2401      C2713   1.488       .  S
N2402      C2403   1.376       .  A
C2403      C2641   1.469       .  S
C2403      N2404   1.343       .  A
N2404      C2405   1.343       .  A
C2405      C2881   1.450       .  S
C2405      N2406   1.351       .  A
C2407      C2744   1.483       .  S
C2407      N2408   1.375       .  A
C2407      N2412   1.360       .  A
N2408      C2409   1.373       .  A
C2409      C2588   1.469       .  S
C2409      N2410   1.343       .  A
N2410      C2411   1.341       .  A
C2411      N2412   1.351       .  A
C2413      C2605   1.484       .  S
C2413      N2414   1.359       .  A
C2413      N2418   1.374       .  A
N2414      C2415   1.353       .  A
C2415      C2869   1.454       .  S
C2415      N2416   1.339       .  A
N2416      C2417   1.338       .  A
C2417      C2749   1.459       .  S
C2417      N2418   1.373       .  A
C2419      C2636   1.485       .  S
C2419      N2420   1.376       .  A
C2419      N2424   1.358       .  A
N2420      C2421   1.374       .  A
N2422      C2423   1.342       .  A
C2423      C2872   1.456       .  S
C2425      C2691   1.488       .  S
C2425      N2426   1.379       .  A
C2425      N2430   1.357       .  A
N2426      C2427   1.378       .  A
C2427      C2499   1.478       .  S
C2427      N2428   1.345       .  A
N2428      C2429   1.340       .  A
C2429      C2857   1.443       .  S
C2429      N2430   1.348       .  A
C2431      C2693   1.492       .  S
C2431      N2432   1.376       .  A
C2431      N2436   1.356       .  A
N2432      C2433   1.378       .  A
C2433      C2768   1.478       .  S
C2433      N2434   1.344       .  A
N2434      C2435   1.344       .  A
C2435      N2436   1.351       .  A
C2437      C2801   1.486       .  S
C2437      N2438   1.357       .  A
C2437      N2442   1.376       .  A
N2438      C2439   1.349       .  A
C2439      C2845   1.448       .  S
C2439      N2440   1.341       .  A
N2440      C2441   1.343       .  A
C2441      C2639   1.471       .  S
C2441      N2442   1.376       .  A
C2443      C2799   1.491       .  S
C2443      N2444   1.375       .  A
C2443      N2448   1.359       .  A
N2444      C2445   1.376       .  A
C2445      C2661   1.471       .  S
C2445      N2446   1.342       .  A
N2446      C2447   1.342       .  A
C2447      C2848   1.450       .  S
C2447      N2448   1.353       .  A
C2449      C2748   1.491       .  S
C2449      N2450   1.359       .  A
C2449      N2454   1.376       .  A
N2450      C2451   1.352       .  A
C2451      C2833   1.448       .  S
C2451      N2452   1.342       .  A
N2452      C2453   1.342       .  A
C2453      C2637   1.473       .  S
C2453      N2454   1.377       .  A
C2455      C2746   1.487       .  S
C2455      N2456   1.356       .  A
C2455      N2460   1.375       .  A
N2456      C2457   1.351       .  A
C2457      N2458   1.342       .  A
N2458      C2459   1.342       .  A
C2459      C2584   1.469       .  S
C2459      N2460   1.376       .  A
C2461      C2582   1.490       .  S
C2461      N2462   1.357       .  A
C2461      N2466   1.374   1_554  A
N2462      C2463   1.351       .  A
C2463      C2824   1.448       .  S
C2463      N2464   1.344   1_554  A
N2464      C2465   1.344       .  A
C2465      C2533   1.471       .  S
C2465      N2466   1.376       .  A
C2467      C2551   1.477       .  S
C2467      N2468   1.355       .  A
C2467      N2472   1.374       .  A
N2468      C2469   1.347       .  A
C2469      C2821   1.443       .  S
C2469      N2470   1.340       .  A
N2470      C2471   1.343       .  A
C2471      C2715   1.468       .  S
C2471      N2472   1.373       .  A
C2473      C2530   1.486       .  S
C2473      N2474   1.357       .  A
C2473      N2478   1.377       .  A
N2474      C2475   1.348       .  A
C2475      C2809   1.439       .  S
C2475      N2476   1.339       .  A
N2476      C2477   1.343       .  A
C2477      C2695   1.471       .  S
C2477      N2478   1.377       .  A
C2479      C2532   1.490       .  S
C2479      N2480   1.356       .  A
C2479      N2484   1.376       .  A
C2481      C2812   1.441       .  S
C2481      N2482   1.342       .  A
C2483      N2484   1.378       .  A
O2485      C2496   1.305       .  A
O2485     Eu2521   2.517       .  S
O2486      C2497   1.292       .  A
O2486     Eu2520   2.480       .  S
O2487      C2498   1.290       .  A
O2487     Eu2493   2.469       .  S
O2488      C2499   1.306       .  A
O2488     Eu2493   2.524       .  S
O2489      C2499   1.284       .  A
O2489     Eu2523   2.426       .  S
O2490      C2498   1.300       .  A
O2490     Eu2522   2.489       .  S
O2491      C2497   1.299       .  A
O2491     Eu2493   2.489       .  S
O2492      C2496   1.283       .  A
O2492     Eu2493   2.423       .  S
Eu2493     O2503   2.361       .  S
Eu2493     O2495   2.369       .  S
Eu2493     O2494   2.325       .  S
Eu2493     O2501   2.366       .  S
O2494     Eu2523   2.367       .  S
O2494     Eu2520   2.347       .  S
O2495     Eu2521   2.328       .  S
O2495     Eu2522   2.345       .  S
H2500      O2501   0.965       .  S
O2501     Eu2522   2.328       .  S
O2501     Eu2520   2.384       .  S
H2502      O2503   0.965       .  S
O2503     Eu2521   2.365       .  S
O2503     Eu2523   2.362       .  S
O2504      C2527   1.309       .  A
O2504     Eu2520   2.544       .  S
O2505      C2528   1.290       .  A
O2505     Eu2521   2.474       .  S
O2506      C2529   1.309       .  A
O2506     Eu2522   2.544       .  S
O2507      C2530   1.290       .  A
O2507     Eu2523   2.472       .  S
O2508      C2531   1.305       .  A
O2508     Eu2523   2.519       .  S
O2509      C2532   1.294       .  A
O2509     Eu2522   2.493       .  S
O2510      C2533   1.309       .  A
O2510     Eu2524   2.542       .  S
O2511      C2534   1.290       .  A
O2511     Eu2524   2.469       .  S
O2512      C2533   1.279       .  A
O2512     Eu2522   2.395       .  S
O2513      C2534   1.299       .  A
O2513     Eu2523   2.486       .  S
O2514      C2529   1.281       .  A
O2514     Eu2520   2.405       .  S
O2515      C2532   1.299       .  A
O2515     Eu2521   2.489       .  S
O2516      C2531   1.283       .  A
O2516     Eu2521   2.418       .  S
O2517      C2530   1.299       .  A
O2517     Eu2520   2.489       .  S
O2518      C2527   1.279       .  A
O2518     Eu2524   2.393       .  S
O2519      C2528   1.299       .  A
O2519     Eu2524   2.486       .  S
Eu2520     O2538   2.327       .  S
Eu2520     O2526   2.349       .  S
Eu2521     O2525   2.364       .  S
Eu2521     O2536   2.361       .  S
Eu2522     O2536   2.383       .  S
Eu2522     O2526   2.350       .  S
Eu2523     O2525   2.328       .  S
Eu2523     O2538   2.368       .  S
Eu2524     O2525   2.343       .  S
Eu2524     O2536   2.320       .  S
Eu2524     O2538   2.384       .  S
Eu2524     O2526   2.348       .  S
H2535      O2536   0.963       .  S
H2537      O2538   0.963       .  S
O2539      C2550   1.308       .  A
O2539     Eu2575   2.534       .  S
O2540      C2551   1.288       .  A
O2540     Eu2574   2.461       .  S
O2541      C2552   1.310   1_565  A
O2541     Eu2547   2.546       .  S
O2542      C2553   1.296   1_556  A
O2543      C2553   1.298       .  A
O2543     Eu2577   2.484       .  S
O2544     Eu2576   2.381       .  S
O2545      C2551   1.297       .  A
O2545     Eu2547   2.474   1_554  S
O2546      C2550   1.278       .  A
Eu2547     O2549   2.354       .  S
Eu2547     O2548   2.344   1_556  S
Eu2547     O2555   2.323   1_556  S
O2548     Eu2574   2.370       .  S
H2554      O2555   0.962   1_556  S
O2555     Eu2574   2.353       .  S
H2556      O2557   0.965   1_556  S
O2557     Eu2575   2.325   1_554  S
O2557     Eu2577   2.358       .  S
O2558      C2581   1.304       .  A
O2559      C2582   1.294   1_556  A
O2560      C2583   1.295   1_556  A
O2560     Eu2576   2.499       .  S
O2561     Eu2577   2.534   1_455  S
O2562      C2585   1.290       .  A
O2562     Eu2577   2.471       .  S
O2563      C2586   1.309       .  A
O2563     Eu2576   2.542       .  S
O2564      C2587   1.293       .  A
O2564     Eu2578   2.484       .  S
O2566      C2587   1.295       .  A
O2566     Eu2576   2.471   1_554  S
O2567      C2588   1.282       .  A
O2567     Eu2577   2.416       .  S
O2568      C2583   1.298       .  A
O2570      C2585   1.299       .  A
O2570     Eu2575   2.485   1_554  S
O2571      C2584   1.280       .  A
O2571     Eu2574   2.400       .  S
O2572      C2581   1.282       .  A
O2572     Eu2578   2.410       .  S
O2573      C2582   1.299       .  A
Eu2574     O2592   2.364       .  S
Eu2575     O2579   2.348   1_556  S
Eu2576     O2590   2.324   1_556  S
Eu2576     O2580   2.343   1_556  S
Eu2577     O2579   2.375       .  S
Eu2578     O2590   2.352       .  S
Eu2578     O2580   2.368       .  S
H2589      O2590   0.960   1_556  S
H2591      O2592   0.963       .  S
O2593      C2604   1.308       .  A
O2593     Eu2629   2.539       .  S
O2594      C2605   1.292       .  A
O2594     Eu2628   2.477       .  S
O2595      C2606   1.293       .  A
O2595     Eu2601   2.489       .  S
O2596      C2607   1.305       .  A
O2596     Eu2601   2.520       .  S
O2597      C2607   1.283       .  A
O2597     Eu2631   2.418       .  S
O2598      C2606   1.300       .  A
O2598     Eu2630   2.494       .  S
O2599      C2605   1.300       .  A
O2599     Eu2601   2.494       .  S
O2600      C2604   1.283       .  A
O2600     Eu2601   2.420       .  S
Eu2601     O2611   2.366       .  S
Eu2601     O2603   2.370       .  S
Eu2601     O2602   2.336       .  S
Eu2601     O2609   2.365       .  S
O2602     Eu2631   2.370       .  S
O2602     Eu2628   2.346       .  S
O2603     Eu2629   2.328       .  S
O2603     Eu2630   2.344       .  S
H2608      O2609   0.964       .  S
O2609     Eu2630   2.327       .  S
O2609     Eu2628   2.390       .  S
H2610      O2611   0.964       .  S
O2611     Eu2629   2.362       .  S
O2611     Eu2631   2.364       .  S
O2612      C2635   1.311       .  A
O2612     Eu2628   2.553       .  S
O2613      C2636   1.291       .  A
O2613     Eu2629   2.476       .  S
O2614      C2637   1.310       .  A
O2614     Eu2630   2.547       .  S
O2615      C2638   1.290       .  A
O2615     Eu2631   2.470       .  S
O2616      C2639   1.307       .  A
O2616     Eu2631   2.530       .  S
O2617      C2640   1.294   1_655  A
O2617     Eu2630   2.492       .  S
O2618      C2641   1.309       .  A
O2618     Eu2632   2.546       .  S
O2619      C2642   1.293       .  A
O2619     Eu2632   2.487       .  S
O2620      C2641   1.279       .  A
O2620     Eu2630   2.389       .  S
O2621      C2642   1.302       .  A
O2621     Eu2631   2.505       .  S
O2622      C2637   1.279       .  A
O2622     Eu2628   2.395       .  S
O2623      C2640   1.299   1_655  A
O2623     Eu2629   2.491       .  S
O2624      C2639   1.281       .  A
O2624     Eu2629   2.404       .  S
O2625      C2638   1.299       .  A
O2625     Eu2628   2.488       .  S
O2626      C2635   1.279       .  A
O2626     Eu2632   2.397       .  S
O2627      C2636   1.298       .  A
O2627     Eu2632   2.485       .  S
Eu2628     O2646   2.318       .  S
Eu2628     O2634   2.347       .  S
Eu2629     O2633   2.372       .  S
Eu2629     O2644   2.359       .  S
Eu2630     O2644   2.379       .  S
Eu2630     O2634   2.354       .  S
Eu2631     O2633   2.325       .  S
Eu2631     O2646   2.361       .  S
Eu2632     O2633   2.348       .  S
Eu2632     O2644   2.322       .  S
Eu2632     O2646   2.380       .  S
Eu2632     O2634   2.349       .  S
H2643      O2644   0.964       .  S
H2645      O2646   0.962       .  S
O2647      C2658   1.292       .  A
O2647     Eu2683   2.484       .  S
O2648      C2659   1.310       .  A
O2648     Eu2682   2.545       .  S
O2649      C2660   1.294       .  A
O2649     Eu2655   2.493       .  S
O2650      C2661   1.310       .  A
O2650     Eu2655   2.549       .  S
O2651      C2661   1.278       .  A
O2651     Eu2685   2.389       .  S
O2652      C2660   1.298       .  A
O2652     Eu2684   2.483       .  S
O2653      C2659   1.278       .  A
O2653     Eu2655   2.386       .  S
O2654      C2658   1.298       .  A
O2654     Eu2655   2.485       .  S
Eu2655     O2665   2.330       .  S
Eu2655     O2657   2.339       .  S
Eu2655     O2656   2.351       .  S
Eu2655     O2663   2.386       .  S
O2656     Eu2685   2.351       .  S
O2656     Eu2682   2.351       .  S
O2657     Eu2683   2.364       .  S
O2657     Eu2684   2.323       .  S
H2662      O2663   0.963       .  S
O2663     Eu2684   2.359       .  S
O2663     Eu2682   2.325       .  S
H2664      O2665   0.961       .  S
O2665     Eu2683   2.366       .  S
O2665     Eu2685   2.386       .  S
O2666      C2689   1.293       .  A
O2666     Eu2682   2.487       .  S
O2667      C2690   1.308       .  A
O2667     Eu2683   2.533       .  S
O2668      C2691   1.290       .  A
O2668     Eu2684   2.475       .  S
O2669      C2692   1.309       .  A
O2669     Eu2685   2.542       .  S
O2670      C2693   1.294       .  A
O2670     Eu2685   2.492       .  S
O2671      C2694   1.305       .  A
O2671     Eu2684   2.518       .  S
O2672      C2695   1.306       .  A
O2672     Eu2686   2.528       .  S
O2673      C2696   1.293       .  A
O2673     Eu2686   2.489       .  S
O2674      C2695   1.281       .  A
O2674     Eu2684   2.407       .  S
O2675      C2696   1.297       .  A
O2675     Eu2685   2.481       .  S
O2676      C2691   1.299       .  A
O2676     Eu2682   2.490       .  S
O2677      C2694   1.283       .  A
O2677     Eu2683   2.420       .  S
O2678      C2693   1.301       .  A
O2678     Eu2683   2.495       .  S
O2679      C2692   1.279       .  A
O2679     Eu2682   2.394       .  S
O2680      C2689   1.299       .  A
O2680     Eu2686   2.485       .  S
O2681      C2690   1.280       .  A
O2681     Eu2686   2.401       .  S
Eu2682     O2700   2.383       .  S
Eu2682     O2688   2.342       .  S
Eu2683     O2687   2.331       .  S
Eu2683     O2698   2.363       .  S
Eu2684     O2698   2.362       .  S
Eu2684     O2688   2.367       .  S
Eu2685     O2687   2.345       .  S
Eu2685     O2700   2.327       .  S
Eu2686     O2687   2.370       .  S
Eu2686     O2698   2.364       .  S
Eu2686     O2700   2.357       .  S
Eu2686     O2688   2.328       .  S
H2697      O2698   0.965       .  S
H2699      O2700   0.963       .  S
O2701      C2712   1.305       .  A
O2701     Eu2737   2.520       .  S
O2702      C2713   1.293       .  A
O2702     Eu2736   2.487       .  S
O2703      C2714   1.292       .  A
O2703     Eu2709   2.481       .  S
O2704      C2715   1.305       .  A
O2704     Eu2709   2.518       .  S
O2705      C2715   1.282       .  A
O2705     Eu2739   2.411       .  S
O2706      C2714   1.297       .  A
O2706     Eu2738   2.476       .  S
O2707      C2713   1.299       .  A
O2707     Eu2709   2.490       .  S
O2708      C2712   1.281       .  A
O2708     Eu2709   2.409       .  S
Eu2709     O2719   2.364       .  S
Eu2709     O2711   2.373       .  S
Eu2709     O2710   2.327       .  S
Eu2709     O2717   2.355       .  S
O2710     Eu2739   2.367       .  S
O2710     Eu2736   2.343       .  S
O2711     Eu2737   2.332       .  S
O2711     Eu2738   2.344       .  S
H2716      O2717   0.964       .  S
O2717     Eu2738   2.323       .  S
O2717     Eu2736   2.384       .  S
H2718      O2719   0.964       .  S
O2719     Eu2737   2.364       .  S
O2719     Eu2739   2.361       .  S
O2720      C2743   1.312       .  A
O2720     Eu2736   2.558       .  S
O2721      C2744   1.292       .  A
O2721     Eu2737   2.481       .  S
O2722      C2745   1.310       .  A
O2722     Eu2738   2.547       .  S
O2723      C2746   1.291       .  A
O2723     Eu2739   2.477       .  S
O2724      C2747   1.308       .  A
O2724     Eu2739   2.537       .  S
O2725      C2748   1.295       .  A
O2725     Eu2738   2.501       .  S
O2726      C2749   1.308       .  A
O2726     Eu2740   2.535       .  S
O2727      C2750   1.291       .  A
O2727     Eu2740   2.480       .  S
O2728      C2749   1.276       .  A
O2728     Eu2738   2.373       .  S
O2729      C2750   1.301       .  A
O2729     Eu2739   2.498       .  S
O2730      C2745   1.278       .  A
O2730     Eu2736   2.386       .  S
O2731      C2748   1.298       .  A
O2731     Eu2737   2.485       .  S
O2732      C2747   1.279       .  A
O2732     Eu2737   2.396       .  S
O2733      C2746   1.299       .  A
O2733     Eu2736   2.487       .  S
O2734      C2743   1.277       .  A
O2734     Eu2740   2.379       .  S
O2735      C2744   1.296       .  A
O2735     Eu2740   2.473       .  S
Eu2736     O2754   2.320       .  S
Eu2736     O2742   2.347       .  S
Eu2737     O2741   2.367       .  S
Eu2737     O2752   2.349       .  S
Eu2738     O2752   2.379       .  S
Eu2738     O2742   2.355       .  S
Eu2739     O2741   2.321       .  S
Eu2739     O2754   2.363       .  S
Eu2740     O2741   2.342       .  S
Eu2740     O2752   2.315       .  S
Eu2740     O2754   2.379       .  S
Eu2740     O2742   2.349       .  S
H2751      O2752   0.961       .  S
H2753      O2754   0.962       .  S
O2756      C2767   1.290       .  A
O2757     Eu2763   2.550       .  S
O2758      C2769   1.292       .  A
O2758     Eu2763   2.480       .  S
O2759      C2769   1.299       .  A
O2759     Eu2793   2.489       .  S
O2760      C2768   1.279       .  A
O2760     Eu2792   2.397       .  S
O2761      C2767   1.298       .  A
O2761     Eu2763   2.487       .  S
O2762      C2766   1.278       .  A
O2762     Eu2763   2.390       .  S
Eu2763     O2773   2.385       .  S
Eu2763     O2764   2.345       .  S
O2764     Eu2793   2.331       .  S
O2765     Eu2792   2.353       .  S
H2770      O2771   0.964       .  S
O2771     Eu2792   2.380       .  S
O2771     Eu2790   2.363       .  S
H2772      O2773   0.962       .  S
O2773     Eu2793   2.367       .  S
O2774      C2797   1.306       .  A
O2774     Eu2790   2.522       .  S
O2775      C2798   1.294       .  A
O2775     Eu2791   2.490       .  S
O2776      C2799   1.295       .  A
O2776     Eu2792   2.497       .  S
O2777      C2800   1.306       .  A
O2777     Eu2793   2.526       .  S
O2778      C2801   1.291       .  A
O2779      C2802   1.310       .  A
O2780      C2803   1.291       .  A
O2780     Eu2794   2.479       .  S
O2781      C2804   1.304   1_565  A
O2781     Eu2794   2.517       .  S
O2782      C2803   1.300       .  A
O2784      C2799   1.298       .  A
O2784     Eu2790   2.485       .  S
O2785      C2802   1.278       .  A
O2785     Eu2791   2.385       .  S
O2786      C2801   1.298       .  A
O2787      C2800   1.281       .  A
O2788     Eu2794   2.416       .  S
O2789      C2798   1.299       .  A
O2789     Eu2794   2.489       .  S
Eu2790     O2808   2.362       .  S
Eu2790     O2796   2.330       .  S
Eu2791     O2795   2.347       .  S
Eu2791     O2806   2.385       .  S
Eu2792     O2796   2.345       .  S
Eu2794     O2795   2.331       .  S
Eu2794     O2806   2.357       .  S
H2805      O2806   0.964       .  S
H2807      O2808   0.962       .  S
C2809      C2810   1.396       .  A
C2809      C2814   1.409       .  A
C2810      C2811   1.389       .  A
C2810      H2819   1.085       .  S
C2811      C2812   1.410       .  A
C2811      S2815   1.805       .  S
C2812      C2813   1.397       .  A
C2813      C2814   1.389       .  A
C2813      H2820   1.084       .  S
C2814      S2816   1.807       .  S
S2815      H2818   1.403       .  S
S2816      H2817   1.405       .  S
C2821      C2822   1.399       .  A
C2821      C2826   1.407       .  A
C2822      C2823   1.390       .  A
C2822      H2831   1.085       .  S
C2823      S2827   1.803       .  S
C2824      C2825   1.400   1_655  A
C2825      H2832   1.085       .  S
C2826      S2828   1.807       .  S
S2828      H2829   1.407       .  S
C2833      C2834   1.400       .  A
C2833      C2838   1.408       .  A
C2834      C2835   1.392       .  A
C2834      H2843   1.084       .  S
C2835      C2836   1.411       .  A
C2835      S2839   1.806       .  S
C2836      C2837   1.399       .  A
C2837      C2838   1.386       .  A
C2837      H2844   1.085       .  S
C2838      S2840   1.804       .  S
S2839      H2842   1.407   1_655  S
S2840      H2841   1.407       .  S
C2845      C2846   1.399       .  A
C2846      H2855   1.085       .  S
C2847      C2848   1.411       .  A
C2847      S2851   1.804       .  S
C2848      C2849   1.400       .  A
C2849      C2850   1.389   1_565  A
C2849      H2856   1.085       .  S
C2850      S2852   1.806       .  S
S2851      H2854   1.406       .  S
C2857      C2858   1.396       .  A
C2857      C2862   1.407       .  A
C2858      C2859   1.391       .  A
C2858      H2867   1.083       .  S
C2859      C2860   1.408       .  A
C2859      S2863   1.810       .  S
C2860      C2861   1.397       .  A
C2861      C2862   1.394       .  A
C2861      H2868   1.083       .  S
C2862      S2864   1.806       .  S
S2863      H2866   1.407       .  S
S2864      H2865   1.407       .  S
C2869      C2870   1.408       .  A
C2869      C2874   1.403       .  A
C2870      C2871   1.388       .  A
C2870      H2879   1.084       .  S
C2871      C2872   1.404       .  A
C2871      S2875   1.804       .  S
C2872      C2873   1.407       .  A
C2873      C2874   1.389       .  A
C2873      H2880   1.084       .  S
C2874      S2876   1.804       .  S
S2875      H2878   1.407       .  S
S2876      H2877   1.407       .  S
C2881      C2882   1.399       .  A
C2881      C2886   1.410       .  A
C2882      C2883   1.389       .  A
C2882      H2891   1.085   1_655  S
C2883      C2884   1.410       .  A
C2883      S2887   1.806   1_655  S
C2884      C2885   1.400       .  A
C2885      C2886   1.393       .  A
C2885      H2892   1.084       .  S
C2886      S2888   1.806       .  S
S2887      H2890   1.407   1_455  S
S2888      H2889   1.406       .  S
C2893      C2894   1.398       .  A
C2893      C2898   1.409       .  A
C2894      C2895   1.386       .  A
C2894      H2903   1.085       .  S
C2895      C2896   1.410       .  A
C2895      S2899   1.805       .  S
C2896      C2897   1.401       .  A
C2897      C2898   1.392       .  A
C2897      H2904   1.084       .  S
C2898      S2900   1.805       .  S
S2899      H2902   1.406       .  S
S2900      H2901   1.407       .  S
C2905      C2906   1.394       .  A
C2905      C2910   1.407   1_565  A
C2906      C2907   1.389       .  A
C2906      H2915   1.084       .  S
C2907      S2911   1.807       .  S
C2908      C2909   1.400       .  A
C2909      H2916   1.083       .  S
S2911      H2914   1.407       .  S
C2917      C2918   1.398       .  A
C2917      C2922   1.409       .  A
C2918      C2919   1.389       .  A
C2918      H2927   1.085       .  S
C2919      C2920   1.411       .  A
C2919      S2923   1.806       .  S
C2920      C2921   1.401       .  A
C2921      C2922   1.393       .  A
C2921      H2928   1.084       .  S
C2922      S2924   1.806       .  S
S2923      H2926   1.406       .  S
S2924      H2925   1.407       .  S
C2929      C2930   1.397       .  A
C2929      C2934   1.411       .  A
C2930      C2931   1.388       .  A
C2930      H2939   1.085       .  S
C2931      C2932   1.408       .  A
C2931      S2935   1.804   1_655  S
C2932      C2933   1.397       .  A
C2933      C2934   1.391       .  A
C2933      H2940   1.084       .  S
C2934      S2936   1.807       .  S
S2935      H2938   1.406       .  S
S2936      H2937   1.402       .  S
C2941      C2942   1.397       .  A
C2941      C2946   1.409       .  A
C2942      C2943   1.387       .  A
C2942      H2951   1.085       .  S
C2943      C2944   1.409       .  A
C2943      S2947   1.805       .  S
C2944      C2945   1.396       .  A
C2945      C2946   1.386       .  A
C2945      H2952   1.085       .  S
C2946      S2948   1.807       .  S
S2947      H2950   1.402       .  S
S2948      H2949   1.405       .  S
C2953      C2954   1.395       .  A
C2953      C2958   1.409       .  A
C2954      C2955   1.390       .  A
C2954      H2963   1.084       .  S
C2955      C2956   1.407       .  A
C2955      S2959   1.808       .  S
C2956      C2957   1.398       .  A
C2957      C2958   1.390       .  A
C2957      H2964   1.084       .  S
C2958      S2960   1.805       .  S
S2959      H2962   1.407       .  S
S2960      H2961   1.405       .  S
C2965      C2966   1.397       .  A
C2965      C2970   1.411       .  A
C2966      C2967   1.387       .  A
C2966      H2975   1.085       .  S
C2967      C2968   1.409       .  A
C2967      S2971   1.804       .  S
C2968      C2969   1.398       .  A
C2969      C2970   1.392       .  A
C2969      H2976   1.084       .  S
C2970      S2972   1.805       .  S
S2971      H2974   1.407       .  S
S2972      H2973   1.405       .  S
C2977      C2978   1.398       .  A
C2977      C2982   1.410       .  A
C2978      C2979   1.388       .  A
C2978      H2987   1.085       .  S
C2979      C2980   1.411       .  A
C2979      S2983   1.805       .  S
C2980      C2981   1.401       .  A
C2981      C2982   1.395       .  A
C2981      H2988   1.084       .  S
C2982      S2984   1.803       .  S
S2983      H2986   1.406       .  S
S2984      H2985   1.404       .  S
C2989      C2990   1.397       .  A
C2990      H2999   1.085       .  S
C2991      C2992   1.410       .  A
C2992      C2993   1.397       .  A
C2993      C2994   1.388       .  A
C2993      H3000   1.085       .  S
C2994      S2996   1.802       .  S
S2996      H2997   1.406       .  S
C3001      C3002   1.395       .  A
C3001      C3006   1.414       .  A
C3002      C3003   1.387       .  A
C3002      H3011   1.084       .  S
C3003      C3004   1.412       .  A
C3003      S3007   1.806       .  S
C3004      C3005   1.393       .  A
C3005      C3006   1.388       .  A
C3005      H3012   1.084       .  S
C3006      S3008   1.805       .  S
S3007      H3010   1.408       .  S
S3008      H3009   1.407       .  S
C3013      C3014   1.398       .  A
C3013      C3018   1.409       .  A
C3014      C3015   1.389       .  A
C3014      H3023   1.085       .  S
C3015      C3016   1.411       .  A
C3015      S3019   1.806       .  S
C3016      C3017   1.400       .  A
C3017      C3018   1.392       .  A
C3017      H3024   1.084       .  S
S3019      H3022   1.407       .  S
S3020      H3021   1.407       .  S
