geometry optimzed in LAMMPS
_audit_creation_date              2020-11-30 
_audit_creation_method            'lammps2cif' 
_symmetry_space_group_name_H-M    'P1' 
_symmetry_Int_Tables_number       1 
_symmetry_cell_setting            triclinic 
loop_ 
_symmetry_equiv_pos_as_xyz 
  x,y,z 
_cell_length_a                    38.19683068 
_cell_length_b                    38.262786075963845 
_cell_length_c                    38.354393780393934 
_cell_angle_alpha                 89.99589131034207 
_cell_angle_beta                  90.00556441863611 
_cell_angle_gamma                 89.80704085707679 
loop_ 
_atom_site_label 
_atom_site_type_symbol 
_atom_site_fract_x 
_atom_site_fract_y 
_atom_site_fract_z 
_atom_site_charge 
C1          C  0.13090266  0.73863212  0.96921779     0.80700
N2          N  0.09511075  0.73893546  0.97006376    -0.77600
C3          C  0.07744940  0.73598631  0.00105851     0.83200
N4          N  0.09635642  0.73200974  0.03126634    -0.77500
C5          C  0.13231604  0.73137492  0.03065673     0.83300
N6          N  0.14883754  0.73512364  0.99952625    -0.79200
C7          C  0.37358546  0.58230862  0.02984305     0.80700
N8          N  0.36289636  0.59751211  0.99985463    -0.77600
C9          C  0.37720191  0.58776501  0.96907499     0.83200
N10         N  0.40298556  0.56332780  0.96839548    -0.77500
C11         C  0.41462965  0.54857777  0.99850060     0.83300
N12         N  0.39954846  0.55824923  0.02910335    -0.79200
C13         C  0.98521043  0.22886693  0.02805478     0.80700
N14         N  0.02109216  0.22910736  0.02851690    -0.77600
C15         C  0.03999666  0.22547081  0.99823781     0.83200
N16         N  0.02233509  0.22201649  0.96725174    -0.77500
C17         C  0.98646854  0.22104044  0.96683819     0.83300
N18         N  0.96880266  0.22415684  0.99717917    -0.79200
C19         C  0.72452126  0.37933773  0.97032643     0.80700
N20         N  0.70245562  0.40691643  0.96970022    -0.77600
C21         C  0.69042867  0.42154066  0.99961137     0.83200
N22         N  0.70170741  0.40818500  0.03064532    -0.77500
C23         C  0.72383503  0.38025651  0.03137182     0.83300
N24         N  0.73506488  0.36584724  0.00110188    -0.79200
C25         C  0.80849842  0.95475418  0.07401028     0.80700
N26         N  0.80934875  0.95494044  0.03824009    -0.77600
C27         C  0.81310830  0.98585814  0.02024839     0.83200
N28         N  0.81594209  0.01658973  0.03861271    -0.77500
C29         C  0.81563798  0.01635827  0.07428307     0.83300
N30         N  0.81211906  0.98550694  0.09077722    -0.79200
C31         C  0.67306536  0.01466172  0.33559814     0.80700
N32         N  0.64632056  0.01430331  0.35864231    -0.77600
C33         C  0.63171763  0.98368734  0.36899027     0.83200
N34         N  0.64386461  0.95340187  0.35476587    -0.77500
C35         C  0.67088572  0.95362109  0.33167071     0.83300
N36         N  0.68545055  0.98435329  0.32242266    -0.79200
C37         C  0.30125162  0.01923905  0.92678384     0.80700
N38         N  0.30072782  0.01761525  0.96240443    -0.77600
C39         C  0.29871583  0.98606952  0.97936405     0.83200
N40         N  0.29713106  0.95597957  0.95971437    -0.77500
C41         C  0.29746055  0.95746665  0.92381297     0.83300
N42         N  0.29975313  0.98921878  0.90814501    -0.79200
C43         C  0.44030949  0.95810184  0.65796533     0.80700
N44         N  0.42928344  0.98991561  0.66906923    -0.77600
C45         C  0.44588125  0.01937840  0.65894664     0.83200
N46         N  0.47363922  0.01716090  0.63729611    -0.77500
C47         C  0.48506052  0.98576786  0.62522518     0.83300
N48         N  0.46851860  0.95625678  0.63629496    -0.79200
C49         C  0.98324854  0.73619890  0.03147273     0.80700
N50         N  0.01920665  0.73533233  0.03202965    -0.77600
C51         C  0.03790143  0.73727113  0.00141148     0.83200
N52         N  0.02000608  0.74035946  0.97054335    -0.77500
C53         C  0.98422759  0.74161346  0.97005767     0.83300
N54         N  0.96659451  0.73938566  0.00051363    -0.79200
C55         C  0.70722264  0.60517073  0.02890022     0.80700
N56         N  0.68584185  0.57728919  0.02633875    -0.77600
C57         C  0.67806526  0.56290520  0.99493265     0.83200
N58         N  0.69326001  0.57660110  0.96583760    -0.77500
C59         C  0.71484732  0.60477870  0.96797641     0.83300
N60         N  0.72178836  0.61872943  0.99974817    -0.79200
C61         C  0.13508762  0.22696757  0.97098037     0.80700
N62         N  0.15061152  0.22253202  0.00234634    -0.77600
C63         C  0.13208847  0.21991900  0.03221019     0.83200
N64         N  0.09635963  0.22139937  0.03075174    -0.77500
C65         C  0.07949379  0.22486190  0.99936887     0.83300
N66         N  0.09915833  0.22775722  0.96944182    -0.79200
C67         C  0.39288348  0.37350342  0.97523819     0.80700
N68         N  0.38269544  0.36112418  0.00664601    -0.77600
C69         C  0.39579658  0.37495090  0.03635011     0.83200
N70         N  0.41911736  0.40139534  0.03476088    -0.77500
C71         C  0.42993564  0.41392503  0.00342112     0.83300
N72         N  0.41635790  0.39986398  0.97381793    -0.79200
C73         C  0.82010763  0.95625606  0.92676184     0.80700
N74         N  0.82129418  0.98746258  0.91004960    -0.77600
C75         C  0.81898237  0.01804183  0.92782523     0.83200
N76         N  0.81584313  0.01738880  0.96334382    -0.77500
C77         C  0.81507310  0.98623951  0.98098717     0.83300
N78         N  0.81674424  0.95567634  0.96233694    -0.79200
C79         C  0.66230385  0.02046171  0.66979408     0.80700
N80         N  0.63592754  0.01887047  0.64614482    -0.77600
C81         C  0.62589911  0.98771533  0.63230367     0.83200
N82         N  0.64242759  0.95821401  0.64308518    -0.77500
C83         C  0.66860449  0.95959639  0.66674182     0.83300
N84         N  0.67855589  0.99074093  0.68003511    -0.79200
C85         C  0.29454933  0.01663959  0.07265800     0.80700
N86         N  0.29563804  0.01630905  0.03700903    -0.77600
C87         C  0.29803812  0.98532897  0.01901226     0.83200
N88         N  0.30018370  0.95450979  0.03766144    -0.77500
C89         C  0.29969580  0.95485518  0.07362333     0.83300
N90         N  0.29639559  0.98599393  0.09001867    -0.79200
C91         C  0.45343001  0.95338723  0.33214266     0.80700
N92         N  0.47989408  0.95388337  0.35569617    -0.77600
C93         C  0.49240948  0.98467261  0.36841467     0.83200
N94         N  0.47801797  0.01500858  0.35686724    -0.77500
C95         C  0.45158214  0.01469960  0.33341431     0.83300
N96         N  0.43936832  0.98388218  0.32104060    -0.79200
C97         C  0.02757519  0.06223509  0.75461037     0.80700
N98         N  0.02838756  0.02660237  0.75267955    -0.77600
C99         C  0.05968867  0.00914466  0.75057868     0.83200
N100        N  0.09026222  0.02806772  0.74978914    -0.77500
C101        C  0.08963855  0.06392850  0.75131602     0.83300
N102        N  0.05813443  0.07997087  0.75413238    -0.79200
C103        C  0.02712601  0.32579295  0.61336963     0.80700
N104        N  0.05793953  0.31678824  0.62875477    -0.77600
C105        C  0.08898051  0.32412391  0.61296602     0.83200
N106        N  0.08886995  0.34033744  0.58164879    -0.77500
C107        C  0.05819150  0.34971034  0.56651340     0.83300
N108        N  0.02741232  0.34190101  0.58204656    -0.79200
C109        C  0.09115887  0.91617031  0.75583082     0.80700
N110        N  0.09103758  0.95189695  0.75463198    -0.77600
C111        C  0.06022318  0.96979401  0.75014621     0.83200
N112        N  0.02970398  0.95125063  0.74616902    -0.77500
C113        C  0.02996685  0.91541272  0.74676558     0.83300
N114        N  0.06072510  0.89880782  0.75201625    -0.79200
C115        C  0.02763769  0.64201299  0.61045273     0.80700
N116        N  0.02751366  0.61969621  0.58309668    -0.77600
C117        C  0.05783859  0.61086558  0.56663890     0.83200
N118        N  0.08838010  0.62575518  0.57761902    -0.77500
C119        C  0.08855123  0.64821145  0.60514911     0.83300
N120        N  0.05813506  0.65593925  0.62125305    -0.79200
C121        C  0.08868884  0.90737417  0.23263400     0.80700
N122        N  0.08815622  0.94306640  0.23340519    -0.77600
C123        C  0.05712110  0.96105172  0.23533923     0.83200
N124        N  0.02641088  0.94245888  0.23746906    -0.77500
C125        C  0.02678546  0.90651047  0.23727585     0.83300
N126        N  0.05807754  0.88969346  0.23455727    -0.79200
C127        C  0.08794786  0.65346046  0.38845934     0.80700
N128        N  0.08709577  0.62934801  0.41436712    -0.77600
C129        C  0.05613363  0.61721580  0.42693328     0.83200
N130        N  0.02596692  0.63004644  0.41323556    -0.77500
C131        C  0.02656263  0.65420667  0.38747819     0.83300
N132        N  0.05755492  0.66608513  0.37515088    -0.79200
C133        C  0.02786660  0.05552122  0.23902917     0.80700
N134        N  0.02684250  0.01965413  0.23823519    -0.77600
C135        C  0.05744210  0.00061488  0.23600938     0.83200
N136        N  0.08884461  0.01814801  0.23480411    -0.77500
C137        C  0.08963470  0.05393135  0.23506390     0.83300
N138        N  0.05916797  0.07168667  0.23703534    -0.79200
C139        C  0.09039283  0.34527368  0.37198068     0.80700
N140        N  0.09051151  0.35972049  0.40410116    -0.77600
C141        C  0.06034608  0.36962360  0.41977934     0.83200
N142        N  0.02944123  0.36443129  0.40341965    -0.77500
C143        C  0.02864365  0.34977972  0.37142049     0.83300
N144        N  0.05922651  0.34074212  0.35591363    -0.79200
C145        C  0.32096413  0.51404816  0.42640847     0.80700
N146        N  0.32159644  0.51430187  0.46214912    -0.77600
C147        C  0.31912015  0.48368470  0.48066716     0.83200
N148        N  0.31584210  0.45274616  0.46270737    -0.77500
C149        C  0.31451593  0.45260014  0.42696880     0.83300
N150        N  0.31710717  0.48322337  0.40962325    -0.79200
C151        C  0.16315042  0.45095493  0.16789124     0.80700
N152        N  0.14170813  0.45441687  0.14016383    -0.77600
C153        C  0.13208028  0.48651121  0.12847662     0.83200
N154        N  0.14492135  0.51534891  0.14495366    -0.77500
C155        C  0.16678590  0.51214918  0.17284489     0.83300
N156        N  0.17514720  0.47968885  0.18438164    -0.79200
O157        O  0.25984636  0.73686057  0.14590166    -0.86000
O158        O  0.24509946  0.70683999  0.33913417    -0.86200
O159        O  0.22008395  0.66509929  0.23303599    -0.87800
O160        O  0.20365922  0.78031654  0.24093784    -0.86600
O161        O  0.23976997  0.82713173  0.25125218    -0.86200
O162        O  0.26862370  0.63010325  0.22954967    -0.87500
O163        O  0.20614182  0.71290200  0.29377225    -0.86000
O164        O  0.21482836  0.72448852  0.18325726    -0.85600
Zr165      Zr  0.23935425  0.72544642  0.24181115     2.84300
O166        O  0.26664237  0.75839904  0.28532871    -1.07600
O167        O  0.28287568  0.69943326  0.20738275    -1.08300
C168        C  0.22717580  0.72973478  0.15239243     1.07100
C169        C  0.21411788  0.70540637  0.32550553     1.07100
C170        C  0.23530139  0.63517597  0.22855953     1.10000
C171        C  0.20957014  0.81365266  0.24449789     1.07800
H172        H  0.26321424  0.67078678  0.28651711     0.33400
O173        O  0.27648414  0.68938473  0.27571911    -1.28500
H174        H  0.25683508  0.78358539  0.20038368     0.33100
O175        O  0.27182481  0.76945459  0.21503206    -1.30200
O176        O  0.35892733  0.72685708  0.35310643    -0.86000
O177        O  0.37295238  0.75969291  0.15941685    -0.87500
O178        O  0.31910394  0.62761782  0.29572464    -0.86100
O179        O  0.27843727  0.81729626  0.31779580    -0.86100
O180        O  0.29967274  0.83928042  0.20412771    -0.85800
O181        O  0.33110052  0.64497446  0.18149540    -0.85600
O182        O  0.41522255  0.68704450  0.25711282    -0.86000
O183        O  0.39829997  0.80150475  0.27337806    -0.85500
O184        O  0.37881904  0.64065413  0.24603237    -0.86500
O185        O  0.34978366  0.83748955  0.27488740    -0.85700
O186        O  0.31179365  0.66395719  0.34248623    -0.86100
O187        O  0.32763298  0.69288147  0.14542556    -0.85800
O188        O  0.30779112  0.80311668  0.15724724    -0.85400
O189        O  0.29262637  0.77218599  0.35421509    -0.85900
O190        O  0.40400348  0.74031127  0.31632831    -0.86200
O191        O  0.41166031  0.75668103  0.20531492    -0.87500
Zr192      Zr  0.30418732  0.72233072  0.31871807     2.83100
Zr193      Zr  0.31470474  0.74384808  0.18028931     2.83500
Zr194      Zr  0.32011891  0.66407596  0.24153171     2.84100
Zr195      Zr  0.29861209  0.80324925  0.25830395     2.83400
Zr196      Zr  0.37955514  0.74200553  0.25780091     2.84200
O197        O  0.34213718  0.77740909  0.22363074    -1.08100
O198        O  0.34773199  0.69726017  0.28437544    -1.07600
C199        C  0.39157004  0.73413903  0.34697585     1.07100
C200        C  0.40375882  0.76242456  0.17310410     1.09700
C201        C  0.31626254  0.63334762  0.32912339     1.07300
C202        C  0.27921471  0.80227682  0.34812519     1.07600
C203        C  0.30277208  0.83370390  0.17074586     1.07200
C204        C  0.33286734  0.66014052  0.15136889     1.06800
C205        C  0.40908186  0.65387353  0.25246505     1.07200
C206        C  0.38280522  0.83116307  0.27903143     1.06700
H207        H  0.37061096  0.69836891  0.19982294     0.33400
O208        O  0.35252564  0.70853616  0.21432418    -1.29200
H209        H  0.34582041  0.78103059  0.31072702     0.33400
O210        O  0.33557396  0.76732786  0.29227428    -1.30500
C211        C  0.48494244  0.23514530  0.46912297     0.80700
N212        N  0.52091345  0.23553035  0.46834152    -0.77600
C213        C  0.53988782  0.23855763  0.49873020     0.83200
N214        N  0.52220558  0.24126312  0.52986320    -0.77500
C215        C  0.48634923  0.24154412  0.53064192     0.83300
N216        N  0.46871243  0.23857182  0.50028349    -0.79200
C217        C  0.22740823  0.10635164  0.47526610     0.80700
N218        N  0.21000812  0.07582677  0.47307040    -0.77600
C219        C  0.20035466  0.05869884  0.50221959     0.83200
N220        N  0.20870791  0.07180544  0.53380763    -0.77500
C221        C  0.22570962  0.10261517  0.53609608     0.83300
N222        N  0.23569693  0.11978522  0.50685599    -0.79200
O223        O  0.30752299  0.13316408  0.80045835    -0.86000
O224        O  0.33764655  0.32669438  0.81966738    -0.86200
O225        O  0.38162418  0.21802699  0.83936572    -0.87800
O226        O  0.26702925  0.22951134  0.85815267    -0.86600
O227        O  0.22040045  0.24182970  0.82261348    -0.86200
O228        O  0.41718282  0.21827174  0.79096521    -0.87500
O229        O  0.32163078  0.28116522  0.85428292    -0.86000
O230        O  0.31906022  0.16987711  0.84631373    -0.85600
Zr231      Zr  0.32069645  0.22832095  0.82131068     2.84300
O232        O  0.28732488  0.27231214  0.79540237    -1.07600
O233        O  0.34778883  0.19505512  0.77767636    -1.08300
C234        C  0.31317032  0.13937412  0.83330860     1.07100
C235        C  0.33422145  0.31172407  0.84978411     1.07100
C236        C  0.41150564  0.21416773  0.82379211     1.10000
C237        C  0.23382376  0.23508131  0.85278007     1.07800
H238        H  0.37480358  0.27445447  0.79963591     0.33400
O239        O  0.35637133  0.26404022  0.78578250    -1.28500
H240        H  0.26223595  0.18685195  0.80431916     0.33100
O241        O  0.27653689  0.20147291  0.78953195    -1.30200
O242        O  0.32012603  0.34335237  0.70564264    -0.86000
O243        O  0.28347389  0.14845297  0.68968391    -0.87500
O244        O  0.41763669  0.28502406  0.74242832    -0.86100
O245        O  0.22467098  0.30511578  0.77728935    -0.88900
O246        O  0.20802059  0.19078312  0.75964033    -0.85800
O247        O  0.40009187  0.17179907  0.72397360    -0.85600
O248        O  0.35647341  0.24387609  0.64558304    -0.86000
O249        O  0.24315573  0.26626690  0.66592809    -0.85500
O250        O  0.40367871  0.23715688  0.68172719    -0.86500
O251        O  0.20749965  0.25768378  0.71301186    -0.85700
O252        O  0.38144310  0.33140164  0.75435222    -0.86100
O253        O  0.35358547  0.13407813  0.72933918    -0.85800
O254        O  0.24431390  0.14432599  0.74958908    -0.85400
O255        O  0.27130139  0.34284147  0.77278982    -0.85900
O256        O  0.30837062  0.30696839  0.65955889    -0.86200
O257        O  0.28188077  0.19628791  0.65325355    -0.87500
Zr258      Zr  0.32249079  0.30816616  0.75993116     2.83100
Zr259      Zr  0.30314330  0.16834559  0.74611665     2.83500
Zr260      Zr  0.38154340  0.23106498  0.74074617     2.84100
Zr261      Zr  0.24302628  0.24534005  0.76339150     2.83400
Zr262      Zr  0.30282672  0.24816541  0.68294782     2.84200
O263        O  0.26928096  0.21225795  0.71976533    -1.08100
O264        O  0.34726319  0.27463970  0.71539518    -1.07600
C265        C  0.31491948  0.33732069  0.67269061     1.07100
C266        C  0.27651368  0.16380448  0.66061926     1.09700
C267        C  0.41182971  0.31812533  0.74774550     1.07300
C268        C  0.23898665  0.33564816  0.77886778     1.07600
C269        C  0.21360228  0.15762368  0.75428299     1.07200
C270        C  0.38549889  0.14138595  0.72151441     1.06800
C271        C  0.39006631  0.24083797  0.65118204     1.07200
C272        C  0.21296281  0.26742649  0.68139692     1.06700
H273        H  0.34633907  0.19026908  0.68986488     0.33400
O274        O  0.33680797  0.20414845  0.70860097    -1.29200
H275        H  0.26360265  0.30014893  0.71790461     0.33400
O276        O  0.27776890  0.28165314  0.72771948    -1.30500
C277        C  0.48621296  0.73587869  0.46873268     0.80700
N278        N  0.52201327  0.73652834  0.46901981    -0.77600
C279        C  0.54022867  0.73376773  0.49982479     0.83200
N280        N  0.52194932  0.73020170  0.53053388    -0.77500
C281        C  0.48604015  0.72905422  0.53029682     0.83300
N282        N  0.46940392  0.73201954  0.49939079    -0.79200
C283        C  0.20960103  0.86372953  0.52608996     0.80700
N284        N  0.19394445  0.89545152  0.52695732    -0.77600
C285        C  0.18380327  0.91131407  0.49698921     0.83200
N286        N  0.18971844  0.89536221  0.46594519    -0.77500
C287        C  0.20559781  0.86376254  0.46478125     0.83300
N288        N  0.21567235  0.84833836  0.49498032    -0.79200
C289        C  0.31728490  0.51509135  0.57402674     0.80700
N290        N  0.31753878  0.51507540  0.53824325    -0.77600
C291        C  0.31959538  0.48408317  0.52010275     0.83200
N292        N  0.32141145  0.45331540  0.53845834    -0.77500
C293        C  0.32201047  0.45360885  0.57414860     0.83300
N294        N  0.31983416  0.48437997  0.59117650    -0.79200
C295        C  0.16738731  0.45659525  0.83267556     0.80700
N296        N  0.17900050  0.48817185  0.82185524    -0.77600
C297        C  0.16503825  0.51779498  0.83529766     0.83200
N298        N  0.13919320  0.51585069  0.85939484    -0.77500
C299        C  0.12723018  0.48435191  0.87062377     0.83300
N300        N  0.14145524  0.45481905  0.85680478    -0.79200
O301        O  0.25654264  0.74470679  0.85206877    -0.86000
O302        O  0.24030854  0.71048188  0.65733127    -0.86200
O303        O  0.19961598  0.78294446  0.75458157    -0.87800
O304        O  0.21453668  0.66910005  0.77176793    -0.86600
O305        O  0.26277590  0.63283173  0.77360523    -0.86200
O306        O  0.23763474  0.82836508  0.74742843    -0.87500
O307        O  0.20192280  0.71433656  0.70340011    -0.86000
O308        O  0.21045378  0.73362940  0.81551975    -0.85600
Zr309      Zr  0.23449313  0.72779505  0.75644870     2.84300
O310        O  0.27100441  0.69101671  0.72240572    -1.07600
O311        O  0.26776787  0.77206731  0.78184127    -1.08300
C312        C  0.22340518  0.73965177  0.84612809     1.07100
C313        C  0.20943778  0.70869498  0.67099623     1.07100
C314        C  0.20677823  0.81612790  0.75216195     1.10000
C315        C  0.22987311  0.63952314  0.77771141     1.07800
H316        H  0.24382994  0.76936585  0.69854317     0.33400
O317        O  0.26221433  0.75961085  0.71262987    -1.28500
H318        H  0.26783366  0.68919845  0.80990305     0.33100
O319        O  0.27831402  0.70242458  0.79125355    -1.30200
O320        O  0.35366816  0.72830036  0.64340086    -0.86000
O321        O  0.37033895  0.76164054  0.83627677    -0.87500
O322        O  0.27732457  0.82097145  0.67843513    -0.86100
O323        O  0.31295068  0.62751708  0.70513500    -0.86100
O324        O  0.33050283  0.64866675  0.81671684    -0.85800
O325        O  0.29796138  0.84237928  0.79192024    -0.85600
O326        O  0.39322028  0.80199490  0.71898005    -0.86000
O327        O  0.41032519  0.68906771  0.74443724    -0.85500
O328        O  0.34482120  0.83786633  0.71991496    -0.86500
O329        O  0.37421888  0.64247390  0.75524493    -0.85700
O330        O  0.28376078  0.77300652  0.64269408    -0.86100
O331        O  0.30387062  0.80626572  0.83897132    -0.85800
O332        O  0.32363878  0.69641279  0.85198969    -0.85400
O333        O  0.30654203  0.66321897  0.65743826    -0.85900
O334        O  0.39953248  0.73600695  0.68045509    -0.86200
O335        O  0.40789249  0.75738876  0.78948612    -0.87500
Zr336      Zr  0.29903802  0.72336562  0.67844496     2.83100
Zr337      Zr  0.31100681  0.74717249  0.81667219     2.83500
Zr338      Zr  0.29498305  0.80458313  0.73828626     2.84100
Zr339      Zr  0.31464071  0.66573526  0.75736234     2.83400
Zr340      Zr  0.37466547  0.74312909  0.73832870     2.84200
O341        O  0.34733226  0.71093458  0.78258008    -1.08100
O342        O  0.33117344  0.76854394  0.70381963    -1.07600
C343        C  0.38698577  0.73175231  0.64955828     1.07100
C344        C  0.40083684  0.76340661  0.82170674     1.09700
C345        C  0.27542848  0.80511651  0.64855113     1.07300
C346        C  0.31076326  0.63285720  0.67174321     1.07600
C347        C  0.33158360  0.66410376  0.84667701     1.07200
C348        C  0.30030745  0.83694446  0.82549383     1.06800
C349        C  0.37744449  0.83173859  0.71422642     1.07200
C350        C  0.40471107  0.65598938  0.74992664     1.06700
H351        H  0.35247026  0.79861935  0.78264046     0.33400
O352        O  0.33880565  0.77988163  0.77277433    -1.29200
H353        H  0.35704175  0.68323208  0.69958318     0.33400
O354        O  0.34200843  0.69809922  0.71341172    -1.30500
C355        C  0.79850455  0.45494475  0.42764330     0.80700
N356        N  0.79601663  0.48565404  0.41031076    -0.77600
C357        C  0.79565114  0.51668654  0.42729284     0.83200
N358        N  0.79774718  0.51689258  0.46303036    -0.77500
C359        C  0.79981783  0.48608658  0.48140203     0.83300
N360        N  0.80050755  0.45512497  0.46329231    -0.79200
C361        C  0.95641179  0.51466078  0.17069613     0.80700
N362        N  0.94540216  0.48312172  0.18225963    -0.77600
C363        C  0.96002194  0.45335168  0.16991869     0.83200
N364        N  0.98595529  0.45524457  0.14580010    -0.77500
C365        C  0.99733850  0.48681111  0.13386691     0.83300
N366        N  0.98230192  0.51637498  0.14669138    -0.79200
C367        C  0.58560512  0.55519545  0.25884920     0.80700
N368        N  0.58650293  0.51933947  0.25900574    -0.77600
C369        C  0.55595201  0.50041903  0.25907992     0.83200
N370        N  0.52456373  0.51795111  0.25899807    -0.77500
C371        C  0.52379740  0.55365343  0.25894889     0.83300
N372        N  0.55415373  0.57155773  0.25855434    -0.79200
C373        C  0.58619897  0.82258443  0.10433035     0.80700
N374        N  0.55632355  0.80933831  0.11761271    -0.77600
C375        C  0.52506151  0.81719221  0.10316322     0.83200
N376        N  0.52376112  0.83889591  0.07520710    -0.77500
C377        C  0.55346805  0.85309952  0.06183948     0.83300
N378        N  0.58477303  0.84422555  0.07641989    -0.79200
O379        O  0.81322641  0.83799341  0.20227079    -0.86000
O380        O  0.77585398  0.64493618  0.18190709    -0.86200
O381        O  0.85054481  0.73997537  0.14250081    -0.87800
O382        O  0.73705867  0.76298108  0.16109157    -0.86600
O383        O  0.70033130  0.75564948  0.20772285    -0.86200
O384        O  0.89763101  0.73164630  0.17877496    -0.87500
O385        O  0.77590238  0.69318987  0.14592890    -0.86000
O386        O  0.80161268  0.80274191  0.15560319    -0.85600
Zr387      Zr  0.79609392  0.74359441  0.17847482     2.84300
O388        O  0.76121219  0.70731845  0.21395525    -1.07600
O389        O  0.84003786  0.76934731  0.21198355    -1.08300
C390        C  0.80817467  0.83291481  0.16915253     1.07100
C391        C  0.76981449  0.66072175  0.15263651     1.07100
C392        C  0.88398718  0.73639842  0.14841259     1.10000
C393        C  0.70672708  0.76526854  0.17613850     1.07800
H394        H  0.83940153  0.68481121  0.18526504     0.33400
O395        O  0.82947787  0.69884124  0.20390526    -1.28500
H396        H  0.75659804  0.79497332  0.21385186     0.33100
O397        O  0.77047716  0.77622644  0.22353701    -1.30200
O398        O  0.79856035  0.62794799  0.29528788    -0.86000
O399        O  0.82832585  0.82162791  0.31611528    -0.87500
O400        O  0.89286901  0.66566449  0.22167059    -0.86100
O401        O  0.69865237  0.68638617  0.25266792    -0.86100
O402        O  0.71504878  0.79802235  0.27299711    -0.85800
O403        O  0.90982158  0.77933726  0.23951966    -0.85600
O404        O  0.87309360  0.71071231  0.33581763    -0.86000
O405        O  0.76049331  0.72472298  0.35371358    -0.85500
O406        O  0.90906896  0.71159352  0.28770626    -0.86500
O407        O  0.71297257  0.73290198  0.31790417    -0.85700
O408        O  0.84606871  0.62927221  0.22836320    -0.86100
O409        O  0.87382347  0.82610691  0.25064434    -0.85800
O410        O  0.76132953  0.83602498  0.26808427    -0.85400
O411        O  0.73535912  0.63967935  0.24577131    -0.85900
O412        O  0.80963298  0.66448282  0.34126115    -0.86200
O413        O  0.82162395  0.77399607  0.35129184    -0.87500
Zr414      Zr  0.79449244  0.66317978  0.24044777     2.83100
Zr415      Zr  0.81454290  0.80269414  0.25636002     2.83500
Zr416      Zr  0.87401921  0.72525745  0.23704834     2.84100
Zr417      Zr  0.73494874  0.73965069  0.25825557     2.83400
Zr418      Zr  0.81307431  0.72270167  0.31668070     2.84200
O419        O  0.77895898  0.76662392  0.29133852    -1.08100
O420        O  0.83925092  0.68927791  0.27279615    -1.07600
C421        C  0.80380847  0.63396516  0.32836272     1.07100
C422        C  0.82883541  0.80630108  0.34626008     1.09700
C423        C  0.87823830  0.63515716  0.22062467     1.07300
C424        C  0.70447486  0.65307158  0.24939933     1.07600
C425        C  0.72884218  0.82870141  0.27396623     1.07200
C426        C  0.90425983  0.81254602  0.24445137     1.06800
C427        C  0.90302430  0.70723618  0.32045712     1.07200
C428        C  0.72722321  0.72819367  0.34814432     1.06700
H429        H  0.86711151  0.76879135  0.29570782     0.33400
O430        O  0.84874661  0.75852110  0.28174795    -1.29200
H431        H  0.75439075  0.68145945  0.29896800     0.33400
O432        O  0.76873367  0.69618305  0.28435811    -1.30500
C433        C  0.63486349  0.73778570  0.52856228     0.80700
N434        N  0.65091012  0.73544590  0.49710876    -0.77600
C435        C  0.63264881  0.73288934  0.46698257     0.83200
N436        N  0.59695976  0.73240648  0.46809118    -0.77500
C437        C  0.57968550  0.73437674  0.49934545     0.83300
N438        N  0.59889413  0.73706057  0.52957610    -0.79200
C439        C  0.87951568  0.88329490  0.52888853     0.80700
N440        N  0.90445337  0.90827199  0.52750807    -0.77600
C441        C  0.91654134  0.92023350  0.49641737     0.83200
N442        N  0.90298020  0.90668929  0.46653646    -0.77500
C443        C  0.87806459  0.88157325  0.46782105     0.83300
N444        N  0.86641683  0.86995593  0.49905115    -0.79200
C445        C  0.58889190  0.56471672  0.74638054     0.80700
N446        N  0.58962302  0.52884710  0.74567219    -0.77600
C447        C  0.55905124  0.50997261  0.74444870     0.83200
N448        N  0.52775801  0.52753835  0.74407282    -0.77500
C449        C  0.52696908  0.56323543  0.74441554     0.83300
N450        N  0.55744650  0.58113843  0.74535731    -0.79200
C451        C  0.52788286  0.81502082  0.88119624     0.80700
N452        N  0.55950894  0.80544441  0.86852411    -0.77600
C453        C  0.58882810  0.81938192  0.88250160     0.83200
N454        N  0.58664500  0.84257342  0.90895362    -0.77500
C455        C  0.55514256  0.85251121  0.92178021     0.83300
N456        N  0.52594665  0.83816694  0.90783484    -0.79200
C457        C  0.79841697  0.45506392  0.57474210     0.80700
N458        N  0.80036470  0.48586528  0.59177194    -0.77600
C459        C  0.80308826  0.51679746  0.57499521     0.83200
N460        N  0.80297748  0.51687742  0.53920626    -0.77500
C461        C  0.80075003  0.48606362  0.52085990     0.83300
N462        N  0.79885466  0.45512222  0.53900934    -0.79200
C463        C  0.95099060  0.51829062  0.83171861     0.80700
N464        N  0.93553482  0.48835459  0.82099495    -0.77600
C465        C  0.94636817  0.45710674  0.83381773     0.83200
N466        N  0.97280609  0.45609994  0.85740009    -0.77500
C467        C  0.98825730  0.48587789  0.86885610     0.83300
N468        N  0.97721049  0.51698598  0.85553995    -0.79200
O469        O  0.85665250  0.74352944  0.85458024    -0.86000
O470        O  0.87905448  0.70943017  0.66281156    -0.86200
O471        O  0.89965800  0.67172663  0.77352092    -0.87800
O472        O  0.91615198  0.78590787  0.75355127    -0.86600
O473        O  0.87925829  0.83139239  0.74146488    -0.86200
O474        O  0.85210734  0.63483504  0.77143484    -0.87500
O475        O  0.91532776  0.71991081  0.70886479    -0.86000
O476        O  0.90375478  0.73617049  0.81836757    -0.85600
Zr477      Zr  0.88050671  0.73133222  0.75947797     2.84300
O478        O  0.85432496  0.76369949  0.71512806    -1.07600
O479        O  0.83618413  0.70434612  0.79212359    -1.08300
C480        C  0.89005793  0.74002722  0.84890184     1.07100
C481        C  0.90945879  0.70892651  0.67784198     1.07100
C482        C  0.88475098  0.64157496  0.77675612     1.10000
C483        C  0.91002457  0.81877280  0.74666987     1.07800
H484        H  0.85920828  0.67578004  0.71488086     0.33400
O485        O  0.84521754  0.69446100  0.72455340    -1.28500
H486        H  0.86199489  0.78933842  0.80056474     0.33100
O487        O  0.84727004  0.77477552  0.78608273    -1.30200
O488        O  0.76536958  0.73061618  0.64340534    -0.86000
O489        O  0.74387612  0.76563774  0.83553483    -0.87500
O490        O  0.80224167  0.63316730  0.70263237    -0.86100
O491        O  0.83273323  0.82574206  0.68207230    -0.86100
O492        O  0.82024272  0.84308800  0.79713662    -0.85800
O493        O  0.78592767  0.64970220  0.81668308    -0.85600
O494        O  0.70508014  0.69307037  0.74064474    -0.86000
O495        O  0.72505092  0.80645801  0.71974975    -0.85500
O496        O  0.74096488  0.64582294  0.75012598    -0.86500
O497        O  0.77063935  0.84301422  0.73168102    -0.85700
O498        O  0.81280594  0.66880250  0.65583204    -0.86100
O499        O  0.78769027  0.69758232  0.85278257    -0.85800
O500        O  0.80779093  0.80666656  0.84296766    -0.85400
O501        O  0.83305829  0.77799810  0.64545154    -0.85900
O502        O  0.71846807  0.74193453  0.67885885    -0.86200
O503        O  0.70804198  0.76519369  0.78720095    -0.87500
Zr504      Zr  0.81939868  0.72723396  0.67971545     2.83100
Zr505      Zr  0.80288582  0.74818897  0.81842458     2.83500
Zr506      Zr  0.80028810  0.66865877  0.75697344     2.84100
Zr507      Zr  0.82101910  0.80752386  0.74214970     2.83400
Zr508      Zr  0.74164164  0.74668634  0.73763034     2.84200
O509        O  0.77655139  0.78154099  0.77434367    -1.08100
O510        O  0.77490233  0.70200620  0.71265148    -1.07600
C511        C  0.73209297  0.73597478  0.64866444     1.07100
C512        C  0.71446819  0.77069003  0.81964064     1.09700
C513        C  0.80672006  0.63859226  0.66941043     1.07300
C514        C  0.83632623  0.81078948  0.65205170     1.07600
C515        C  0.81468312  0.83705878  0.83016963     1.07200
C516        C  0.78244142  0.66489927  0.84673528     1.06800
C517        C  0.71053065  0.65971740  0.74477898     1.07200
C518        C  0.73971053  0.83699113  0.72027409     1.06700
H519        H  0.74790737  0.70336381  0.79627933     0.33400
O520        O  0.76668628  0.71327746  0.78255585    -1.29200
H521        H  0.77675930  0.78598408  0.68665633     0.33400
O522        O  0.78656074  0.77209808  0.70526256    -1.30500
C523        C  0.52623426  0.40673825  0.25949533     0.80700
N524        N  0.52592026  0.44250866  0.25851814    -0.77600
C525        C  0.55661761  0.46104307  0.25961651     0.83200
N526        N  0.58776771  0.44314544  0.26124406    -0.77500
C527        C  0.58816036  0.40738616  0.26268153     0.83300
N528        N  0.55741932  0.38993802  0.26203514    -0.79200
C529        C  0.58827859  0.14969991  0.12009772     0.80700
N530        N  0.58936602  0.12646647  0.09339736    -0.77600
C531        C  0.55955400  0.11267313  0.07996487     0.83200
N532        N  0.52844519  0.12308259  0.09345293    -0.77500
C533        C  0.52695873  0.14630231  0.11989550     0.83300
N534        N  0.55687253  0.15994684  0.13309745    -0.79200
O535        O  0.85593866  0.22737127  0.14381116    -0.86000
O536        O  0.88292443  0.26962230  0.33192669    -0.86200
O537        O  0.89807753  0.30377924  0.22196578    -0.87800
O538        O  0.91894892  0.19155964  0.24006795    -0.86600
O539        O  0.88368179  0.14451380  0.25129128    -0.86200
O540        O  0.85093452  0.34124770  0.22530023    -0.87500
O541        O  0.91822527  0.25652821  0.28556471    -0.86000
O542        O  0.90298829  0.23985875  0.17842489    -0.85600
Zr543      Zr  0.88085451  0.24441220  0.23751190     2.84300
O544        O  0.85729392  0.21280832  0.28396214    -1.07600
O545        O  0.83557414  0.27047843  0.20547034    -1.08300
C546        C  0.88918655  0.23303007  0.14854786     1.07100
C547        C  0.91283495  0.26982761  0.31567714     1.07100
C548        C  0.88346526  0.33413701  0.21935521     1.10000
C549        C  0.91378894  0.15830420  0.24464898     1.07800
H550        H  0.86004639  0.30069545  0.28146473     0.33400
O551        O  0.84617305  0.28156088  0.27288675    -1.28500
H552        H  0.86240712  0.18485090  0.19878920     0.33100
O553        O  0.84811241  0.19951580  0.21352329    -1.30200
O554        O  0.76817718  0.24675756  0.35679531    -0.86000
O555        O  0.74380939  0.20661498  0.16576459    -0.87500
O556        O  0.80312515  0.34365920  0.29528373    -0.86100
O557        O  0.84112992  0.15250538  0.31976647    -0.86100
O558        O  0.81712606  0.13007364  0.20628388    -0.85800
O559        O  0.78191197  0.32300842  0.18208457    -0.85600
O560        O  0.70577332  0.28043769  0.26083747    -0.86000
O561        O  0.72680957  0.16769663  0.28045368    -0.85500
O562        O  0.74047754  0.32779591  0.24929086    -0.86500
O563        O  0.77473422  0.13205030  0.27434284    -0.85700
O564        O  0.81722998  0.30893306  0.34207019    -0.86100
O565        O  0.78691116  0.27513538  0.14642842    -0.85800
O566        O  0.80738159  0.16560117  0.15945565    -0.85400
O567        O  0.83839261  0.20109717  0.35522844    -0.85900
O568        O  0.72141370  0.23352768  0.32192137    -0.86200
O569        O  0.70841312  0.21049383  0.21416543    -0.87500
Zr570      Zr  0.82234406  0.24978263  0.31937306     2.83100
Zr571      Zr  0.80290695  0.22498410  0.18149637     2.83500
Zr572      Zr  0.80016826  0.30645908  0.24140431     2.84100
Zr573      Zr  0.82444464  0.16735613  0.25938597     2.83400
Zr574      Zr  0.74368673  0.22752705  0.26323717     2.84200
O575        O  0.77886173  0.19225010  0.22720287    -1.08100
O576        O  0.77644625  0.27336459  0.28679443    -1.07600
C577        C  0.73489317  0.24053230  0.35187128     1.07100
C578        C  0.71425677  0.20366103  0.18185855     1.09700
C579        C  0.80959720  0.33879567  0.32836559     1.07300
C580        C  0.84393293  0.16848480  0.34947309     1.07600
C581        C  0.81176409  0.13507876  0.17306323     1.07200
C582        C  0.77893261  0.30739216  0.15222010     1.06800
C583        C  0.71049383  0.31373819  0.25589980     1.07200
C584        C  0.74258455  0.13767836  0.28262718     1.06700
H585        H  0.74780889  0.26969148  0.20401045     0.33400
O586        O  0.76717130  0.26046415  0.21745282    -1.29200
H587        H  0.78046478  0.18995299  0.31478229     0.33400
O588        O  0.78978889  0.20357283  0.29568249    -1.30500
C589        C  0.52980561  0.41606202  0.73951803     0.80700
N590        N  0.56114489  0.39947516  0.73785904    -0.77600
C591        C  0.59160527  0.41739393  0.73867778     0.83200
N592        N  0.59092642  0.45300777  0.74139413    -0.77500
C593        C  0.55968729  0.47061658  0.74273274     0.83300
N594        N  0.52909233  0.45181449  0.74204371    -0.79200
C595        C  0.52480667  0.15892919  0.90417501     0.80700
N596        N  0.52574180  0.13522863  0.93036689    -0.77600
C597        C  0.55679594  0.12127501  0.94101174     0.83200
N598        N  0.58675697  0.13170243  0.92490151    -0.77500
C599        C  0.58578445  0.15514683  0.89842668     0.83300
N600        N  0.55474605  0.16858548  0.88818627    -0.79200
C601        C  0.63377222  0.23834175  0.52929286     0.80700
N602        N  0.59792474  0.23681163  0.52898461    -0.77600
C603        C  0.57954159  0.23943484  0.49828427     0.83200
N604        N  0.59782369  0.24322373  0.46759570    -0.77500
C605        C  0.63371280  0.24543357  0.46793287     0.83300
N606        N  0.65068770  0.24319392  0.49872776    -0.79200
C607        C  0.89390015  0.10184423  0.47420836     0.80700
N608        N  0.91587835  0.07415900  0.47226186    -0.77600
C609        C  0.92876273  0.05873860  0.50138393     0.83200
N610        N  0.91867275  0.07140839  0.53292713    -0.77500
C611        C  0.89684550  0.09930956  0.53510616     0.83300
N612        N  0.88413652  0.11436314  0.50574170    -0.79200
O613        O  0.85291331  0.22716612  0.85738226    -0.86000
O614        O  0.87513491  0.26559865  0.66663007    -0.86200
O615        O  0.91087841  0.18897705  0.75838876    -0.87800
O616        O  0.89323913  0.30170844  0.78229793    -0.86600
O617        O  0.84677200  0.33967852  0.77696107    -0.86200
O618        O  0.87417971  0.14266384  0.74953914    -0.87500
O619        O  0.91086927  0.25970619  0.71425898    -0.86000
O620        O  0.89939585  0.23540430  0.82063291    -0.85600
Zr621      Zr  0.87520466  0.24309782  0.76324258     2.84300
O622        O  0.84144077  0.27956370  0.72697180    -1.07600
O623        O  0.84127489  0.19921400  0.78849182    -1.08300
C624        C  0.88641277  0.23035195  0.85111195     1.07100
C625        C  0.90508356  0.26845230  0.68238716     1.07100
C626        C  0.90495169  0.15580062  0.75410743     1.10000
C627        C  0.87861179  0.33217614  0.78474450     1.07800
H628        H  0.86863639  0.20009991  0.70564475     0.33400
O629        O  0.84974248  0.21024356  0.71885934    -1.28500
H630        H  0.84068206  0.28300650  0.81541493     0.33100
O631        O  0.83098393  0.26958507  0.79640497    -1.30200
O632        O  0.76146819  0.24286047  0.64636686    -0.86000
O633        O  0.73814784  0.20820787  0.83918331    -0.87500
O634        O  0.83125712  0.14626699  0.68621623    -0.86100
O635        O  0.80150781  0.34151613  0.70516893    -0.86100
O636        O  0.77879059  0.32419206  0.81806596    -0.85800
O637        O  0.81349018  0.13006459  0.79805241    -0.85600
O638        O  0.71602559  0.17316347  0.72593727    -0.86000
O639        O  0.70224383  0.28698164  0.74183060    -0.85500
O640        O  0.76210846  0.13439910  0.72960646    -0.86500
O641        O  0.73961709  0.33225852  0.75357703    -0.85700
O642        O  0.83334894  0.19444099  0.65021357    -0.86100
O643        O  0.80237248  0.16614486  0.84459479    -0.85800
O644        O  0.77959815  0.27649863  0.85471952    -0.85400
O645        O  0.80953704  0.30498070  0.65851053    -0.85900
O646        O  0.71457711  0.23356855  0.68214708    -0.86200
O647        O  0.70170935  0.21775690  0.79276047    -0.87500
Zr648      Zr  0.81551682  0.24636468  0.68251986     2.83100
Zr649      Zr  0.79750580  0.22546449  0.82183780     2.83500
Zr650      Zr  0.81505266  0.16646897  0.74434753     2.84100
Zr651      Zr  0.79700273  0.30598876  0.75967480     2.83400
Zr652      Zr  0.73660408  0.23109486  0.74157677     2.84200
O653        O  0.76296417  0.26267045  0.78626711    -1.08100
O654        O  0.78071318  0.20343611  0.70872238    -1.07600
C655        C  0.72812203  0.23820016  0.65169546     1.07100
C656        C  0.70770859  0.20761471  0.82430969     1.09700
C657        C  0.83781953  0.16161620  0.65696049     1.07300
C658        C  0.80498956  0.33565126  0.67185204     1.07600
C659        C  0.77393339  0.30903713  0.84781121     1.07200
C660        C  0.80873966  0.13584469  0.83113918     1.06800
C661        C  0.72981244  0.14244897  0.72355448     1.07200
C662        C  0.70907156  0.31999506  0.74663809     1.06700
H663        H  0.75665230  0.17504549  0.78633900     0.33400
O664        O  0.77096993  0.19348441  0.77683163    -1.29200
H665        H  0.75717150  0.28810748  0.70052783     0.33400
O666        O  0.77140994  0.27333339  0.71535977    -1.30500
O667        O  0.26015534  0.22451476  0.14592897    -0.86000
O668        O  0.24037018  0.26250994  0.34058377    -0.86200
O669        O  0.19924325  0.18703254  0.24501054    -0.87800
O670        O  0.21479866  0.29837323  0.22553315    -0.86600
O671        O  0.26199856  0.33573684  0.22670488    -0.86200
O672        O  0.23616473  0.14057217  0.25332241    -0.87500
O673        O  0.20531238  0.26089201  0.29212280    -0.86000
O674        O  0.21358570  0.23290956  0.18247214    -0.85600
Zr675      Zr  0.23605214  0.24064804  0.24135214     2.84300
O676        O  0.27130578  0.27690514  0.27649100    -1.07600
O677        O  0.26919385  0.19706405  0.21511961    -1.08300
C678        C  0.22685147  0.22760284  0.15197022     1.07100
C679        C  0.21096496  0.26728036  0.32458416     1.07100
C680        C  0.20543843  0.15368822  0.24834789     1.10000
C681        C  0.22940472  0.32840571  0.22124845     1.07800
H682        H  0.24342000  0.19860806  0.30002490     0.33400
O683        O  0.26189553  0.20836982  0.28601181    -1.28500
H684        H  0.26947821  0.28058244  0.18916508     0.33100
O685        O  0.27981842  0.26723858  0.20786352    -1.30200
O686        O  0.35268928  0.24063835  0.35659135    -0.86000
O687        O  0.37285238  0.20749686  0.16439028    -0.87500
O688        O  0.28121928  0.14600049  0.31833900    -0.86100
O689        O  0.31108954  0.33992223  0.29711059    -0.86100
O690        O  0.33293463  0.32147695  0.18478397    -0.85800
O691        O  0.29670062  0.12804437  0.20455440    -0.85600
O692        O  0.39145965  0.16663879  0.28132638    -0.86000
O693        O  0.40979268  0.27989382  0.25980055    -0.85500
O694        O  0.34535958  0.12948557  0.27322324    -0.86500
O695        O  0.37385809  0.32692283  0.24949148    -0.85700
O696        O  0.28662666  0.19354635  0.35477756    -0.86100
O697        O  0.30692937  0.16472376  0.15858356    -0.85800
O698        O  0.32572932  0.27442301  0.14868110    -0.85400
O699        O  0.30556242  0.30320115  0.34408863    -0.85900
O700        O  0.39859671  0.22873129  0.32025386    -0.86200
O701        O  0.40958480  0.20991791  0.21188783    -0.87500
Zr702      Zr  0.29847289  0.24451873  0.32070771     2.83100
Zr703      Zr  0.31337359  0.22304941  0.18253084     2.83500
Zr704      Zr  0.29486943  0.16404676  0.25891757     2.84100
Zr705      Zr  0.31480276  0.30361167  0.24331827     2.83400
Zr706      Zr  0.37469413  0.22554208  0.26179284     2.84200
O707        O  0.34865179  0.25902518  0.21769014    -1.08100
O708        O  0.33041888  0.19963473  0.29447553    -1.07600
C709        C  0.38575733  0.23478811  0.35073403     1.07100
C710        C  0.40285200  0.20392296  0.17958502     1.09700
C711        C  0.28024910  0.16126715  0.34834921     1.07300
C712        C  0.30903750  0.33380932  0.33044605     1.07600
C713        C  0.33468271  0.30620339  0.15473271     1.07200
C714        C  0.30099793  0.13415850  0.17139634     1.06800
C715        C  0.37684473  0.13616595  0.28288579     1.07200
C716        C  0.40422122  0.31316362  0.25544220     1.06700
H717        H  0.35342649  0.17063506  0.21640356     0.33400
O718        O  0.33961982  0.18938985  0.22634038    -1.29200
H719        H  0.35632767  0.28468914  0.30154529     0.33400
O720        O  0.34168177  0.27026056  0.28698375    -1.30500
C721        C  0.85473906  0.14087482  0.62935110    -0.04800
C722        C  0.88945158  0.14904180  0.61964935    -0.02000
C723        C  0.90372297  0.13497272  0.58891486     0.03000
C724        C  0.88402391  0.11114615  0.56912958    -0.04800
C725        C  0.85112225  0.09971232  0.58112305    -0.01900
C726        C  0.83635497  0.11471520  0.61122958     0.03000
C727        C  0.91086050  0.17095017  0.64193481     0.37700
C728        C  0.83237133  0.07277215  0.56222035     0.37700
C729        C  0.80247828  0.10306038  0.62331626     0.36100
C730        C  0.93799757  0.14598856  0.57696200     0.36100
N731        N  0.77570670  0.09255481  0.63257799    -0.38700
N732        N  0.96521513  0.15500924  0.56731049    -0.38700
N733        N  0.81751654  0.05111570  0.54730278    -0.38200
N734        N  0.92831762  0.18787945  0.65985125    -0.38200
C735        C  0.65584309  0.23495549  0.56201958    -0.04800
C736        C  0.64422886  0.24711713  0.59487275    -0.02000
C737        C  0.66703569  0.24677856  0.62421673     0.03000
C738        C  0.70316689  0.23741779  0.62070565    -0.04800
C739        C  0.71454017  0.22513133  0.58766271    -0.01900
C740        C  0.69060316  0.22158587  0.55967895     0.03000
C741        C  0.60891190  0.26067024  0.59873327     0.37700
C742        C  0.75067575  0.21439358  0.58230161     0.37700
C743        C  0.70155410  0.20190638  0.52912282     0.36100
C744        C  0.65258455  0.25631656  0.65790821     0.36100
N745        N  0.71022173  0.18581059  0.50505033    -0.38700
N746        N  0.64059566  0.26349916  0.68469653    -0.38700
N747        N  0.77942076  0.20579967  0.57785926    -0.38200
N748        N  0.58078804  0.27155764  0.60197674    -0.38200
C749        C  0.67714716  0.19295176  0.84409674    -0.04800
C750        C  0.67555598  0.19416458  0.88116174    -0.02000
C751        C  0.64608186  0.18090427  0.89899636     0.03000
C752        C  0.61805614  0.16612927  0.88026318    -0.04800
C753        C  0.61982642  0.16386358  0.84366597    -0.01900
C754        C  0.64921642  0.17660297  0.82570828     0.03000
C755        C  0.70395974  0.20892795  0.90145242     0.37700
C756        C  0.59127410  0.14833824  0.82400234     0.37700
C757        C  0.65022451  0.17165131  0.78816249     0.36100
C758        C  0.64371483  0.18421186  0.93663635     0.36100
N759        N  0.64974571  0.16740520  0.75830100    -0.38700
N760        N  0.64157444  0.18695591  0.96661160    -0.38700
N761        N  0.56888313  0.13645723  0.80755406    -0.38200
N762        N  0.72660388  0.22035911  0.91789788    -0.38200
C763        C  0.62489366  0.39688126  0.73929769    -0.04800
C764        C  0.64235002  0.39116041  0.77113900    -0.02000
C765        C  0.67048170  0.36710119  0.77310974     0.03000
C766        C  0.68003981  0.34648523  0.74390530    -0.04800
C767        C  0.66429710  0.35424229  0.71138937    -0.01900
C768        C  0.63670079  0.37909370  0.70917555     0.03000
C769        C  0.63052840  0.40915264  0.80233466     0.37700
C770        C  0.67877258  0.33935157  0.67975362     0.37700
C771        C  0.62097057  0.38705634  0.67570583     0.36100
C772        C  0.69052231  0.36524157  0.80496271     0.36100
N773        N  0.60871612  0.39364582  0.64889539    -0.38700
N774        N  0.70650366  0.36573787  0.83050534    -0.38700
N775        N  0.69085446  0.32839826  0.65431589    -0.38200
N776        N  0.62098290  0.42325054  0.82729670    -0.38200
C777        C  0.65617007  0.24747607  0.43560346    -0.04800
C778        C  0.65357967  0.22184973  0.40935460    -0.02000
C779        C  0.67996383  0.21856126  0.38339990     0.03000
C780        C  0.70907997  0.24187753  0.38210130    -0.04800
C781        C  0.71075168  0.26849077  0.40772466    -0.01900
C782        C  0.68488629  0.27098239  0.43431212     0.03000
C783        C  0.62433711  0.19771782  0.40984379     0.37700
C784        C  0.73847531  0.29423346  0.40641371     0.37700
C785        C  0.68770782  0.29834029  0.46036206     0.36100
C786        C  0.67731995  0.18987291  0.35892505     0.36100
N787        N  0.69005623  0.32011667  0.48116529    -0.38700
N788        N  0.67437709  0.16664039  0.33989221    -0.38700
N789        N  0.76043571  0.31497557  0.40571377    -0.38200
N790        N  0.60086972  0.17866163  0.41022413    -0.38200
C791        C  0.85610892  0.14859071  0.37988417    -0.04800
C792        C  0.89227466  0.14671172  0.38664026    -0.02000
C793        C  0.90461189  0.13052559  0.41708335     0.03000
C794        C  0.88060111  0.11779989  0.44190115    -0.04800
C795        C  0.84421585  0.12053308  0.43569089    -0.01900
C796        C  0.83197534  0.13629068  0.40479050     0.03000
C797        C  0.91653632  0.16468856  0.36401436     0.37700
C798        C  0.81937564  0.10641996  0.46053354     0.37700
C799        C  0.79468842  0.14137357  0.39934388     0.36100
C800        C  0.94204079  0.12818270  0.42343265     0.36100
N801        N  0.76498270  0.14568552  0.39509663    -0.38700
N802        N  0.97184268  0.12600018  0.42847773    -0.38700
N803        N  0.79933491  0.09508284  0.48008698    -0.38200
N804        N  0.93557293  0.18023454  0.34658805    -0.38200
C805        C  0.56023690  0.09383833  0.04586159    -0.04800
C806        C  0.52847502  0.08712182  0.02802714    -0.02000
C807        C  0.52743719  0.09051183  0.99150859     0.03000
C808        C  0.55841440  0.09935452  0.97328831    -0.04800
C809        C  0.59081780  0.09303396  0.99015713    -0.01900
C810        C  0.59181029  0.09083821  0.02676997     0.03000
C811        C  0.49660982  0.07890863  0.04695732     0.37700
C812        C  0.62311291  0.08994589  0.97047492     0.37700
C813        C  0.62533558  0.08762410  0.04429313     0.36100
C814        C  0.49444981  0.08608577  0.97329216     0.36100
N815        N  0.65233910  0.08528118  0.05779866    -0.38700
N816        N  0.46799438  0.08252382  0.95903131    -0.38700
N817        N  0.64894272  0.08728733  0.95490890    -0.38200
N818        N  0.47110843  0.07251703  0.06193335    -0.38200
C819        C  0.49285248  0.15974797  0.13128229    -0.04800
C820        C  0.46933359  0.13804418  0.14935014    -0.02000
C821        C  0.43831649  0.15236478  0.16300691     0.03000
C822        C  0.43160620  0.18852958  0.15954043    -0.04800
C823        C  0.45413192  0.20965434  0.13965547    -0.01900
C824        C  0.48369430  0.19464512  0.12384266     0.03000
C825        C  0.47692545  0.10113595  0.15378795     0.37700
C826        C  0.44828937  0.24697983  0.13703513     0.37700
C827        C  0.50299831  0.21402942  0.09771219     0.36100
C828        C  0.41352467  0.13001496  0.18100679     0.36100
N829        N  0.51753963  0.22891340  0.07583393    -0.38700
N830        N  0.39365353  0.11203557  0.19496680    -0.38700
N831        N  0.44460361  0.27696466  0.13542824    -0.38200
N832        N  0.48264771  0.07160346  0.15712812    -0.38200
C833        C  0.68405113  0.19064816  0.16226966    -0.04800
C834        C  0.65636371  0.21361530  0.15418728    -0.02000
C835        C  0.62532624  0.20053781  0.13942836     0.03000
C836        C  0.62127959  0.16411202  0.13428422    -0.04800
C837        C  0.64890524  0.14113787  0.14333825    -0.01900
C838        C  0.68044445  0.15446673  0.15668080     0.03000
C839        C  0.65939499  0.25055785  0.16250105     0.37700
C840        C  0.64390789  0.10357458  0.14185560     0.37700
C841        C  0.70807365  0.13061833  0.16732560     0.36100
C842        C  0.59786803  0.22489376  0.12979081     0.36100
N843        N  0.72972168  0.11128901  0.17604701    -0.38700
N844        N  0.57658775  0.24520673  0.12255397    -0.38700
N845        N  0.63984008  0.07362509  0.14113001    -0.38200
N846        N  0.66188158  0.27983780  0.16964912    -0.38200
C847        C  0.49349386  0.38483503  0.25665198    -0.04800
C848        C  0.49453913  0.35295581  0.23765450    -0.02000
C849        C  0.46649806  0.32897014  0.23917301     0.03000
C850        C  0.43512198  0.33761247  0.25675132    -0.04800
C851        C  0.43319952  0.37031197  0.27431461    -0.01900
C852        C  0.46234758  0.39338216  0.27481340     0.03000
C853        C  0.52394696  0.34522146  0.21489722     0.37700
C854        C  0.40179582  0.37986123  0.29334559     0.37700
C855        C  0.46042540  0.42542653  0.29493793     0.36100
C856        C  0.47043445  0.29505582  0.22272992     0.36100
N857        N  0.45876762  0.45098102  0.31101444    -0.38700
N858        N  0.47402998  0.26764491  0.21050384    -0.38700
N859        N  0.37690521  0.38799880  0.30853399    -0.38200
N860        N  0.54722734  0.33922185  0.19651109    -0.38200
C861        C  0.62140956  0.38617079  0.26311449    -0.04800
C862        C  0.62568507  0.35873088  0.28761149    -0.02000
C863        C  0.65416637  0.33494505  0.28504105     0.03000
C864        C  0.67936205  0.33825616  0.25810909    -0.04800
C865        C  0.67555999  0.36651007  0.23427983    -0.01900
C866        C  0.64660231  0.38976859  0.23643309     0.03000
C867        C  0.60080713  0.35505962  0.31598868     0.37700
C868        C  0.70085554  0.37145252  0.20658411     0.37700
C869        C  0.64154634  0.41593765  0.20953927     0.36100
C870        C  0.65803869  0.30797520  0.31128784     0.36100
N871        N  0.63748034  0.43640677  0.18769591    -0.38700
N872        N  0.66057448  0.28670616  0.33256539    -0.38700
N873        N  0.72094656  0.37602793  0.18451517    -0.38200
N874        N  0.58104103  0.35200962  0.33864841    -0.38200
C875        C  0.93040579  0.42415297  0.82124460    -0.04800
C876        C  0.92434859  0.41900987  0.78518536    -0.02000
C877        C  0.90837288  0.38821857  0.77337191     0.03000
C878        C  0.89950297  0.36174840  0.79718531    -0.04800
C879        C  0.90550888  0.36647527  0.83315927    -0.01900
C880        C  0.92073079  0.39772605  0.84522814     0.03000
C881        C  0.93454255  0.44497285  0.75969180     0.37700
C882        C  0.89335597  0.34059429  0.85805672     0.37700
C883        C  0.92394105  0.40352578  0.88250021     0.36100
C884        C  0.89992169  0.38413649  0.73661715     0.36100
N885        N  0.92618315  0.40798603  0.91226644    -0.38700
N886        N  0.89287502  0.38082519  0.70745596    -0.38700
N887        N  0.88341669  0.32047502  0.87827598    -0.38200
N888        N  0.94208745  0.46494162  0.73837959    -0.38200
C889        C  0.93824217  0.55215813  0.81831734    -0.04800
C890        C  0.91833312  0.57400933  0.84023737    -0.02000
C891        C  0.90242538  0.60416383  0.82651151     0.03000
C892        C  0.90581326  0.61246909  0.79088927    -0.04800
C893        C  0.92682655  0.59144936  0.76919086    -0.01900
C894        C  0.94365377  0.56164786  0.78310215     0.03000
C895        C  0.91316144  0.56483166  0.87659843     0.37700
C896        C  0.92978468  0.59950860  0.73239741     0.37700
C897        C  0.96739153  0.54150513  0.76151643     0.36100
C898        C  0.88190375  0.62662179  0.84883793     0.36100
N899        N  0.98689434  0.52613191  0.74420861    -0.38700
N900        N  0.86557667  0.64517581  0.86611832    -0.38700
N901        N  0.93169678  0.60547005  0.70288501    -0.38200
N902        N  0.90901881  0.55749076  0.90557513    -0.38200
C903        C  0.79721707  0.42231748  0.59667668    -0.04800
C904        C  0.82127296  0.39473720  0.59136723    -0.02000
C905        C  0.82395314  0.36686601  0.61577474     0.03000
C906        C  0.80287031  0.36604513  0.64642437    -0.04800
C907        C  0.77871466  0.39377945  0.65155260    -0.01900
C908        C  0.77570896  0.42129038  0.62689335     0.03000
C909        C  0.84518322  0.39617632  0.56200213     0.37700
C910        C  0.75674004  0.39459548  0.68235788     0.37700
C911        C  0.75032975  0.44897535  0.63303923     0.36100
C912        C  0.85017570  0.34013011  0.60988773     0.36100
N913        N  0.73031879  0.47117379  0.63814555    -0.38700
N914        N  0.87132404  0.31913055  0.60457048    -0.38700
N915        N  0.73935105  0.39613185  0.70700368    -0.38200
N916        N  0.86446338  0.39739417  0.53875771    -0.38200
C917        C  0.80619133  0.54944179  0.59720164    -0.04800
C918        C  0.78903283  0.58106034  0.58825636    -0.02000
C919        C  0.78896848  0.60996876  0.61165302     0.03000
C920        C  0.80574736  0.60776836  0.64473946    -0.04800
C921        C  0.82301145  0.57627090  0.65352578    -0.01900
C922        C  0.82389231  0.54782591  0.62992047     0.03000
C923        C  0.77027919  0.58366950  0.55546619     0.37700
C924        C  0.84054748  0.57297794  0.68695452     0.37700
C925        C  0.84412340  0.51707096  0.63953471     0.36100
C926        C  0.77012782  0.64148112  0.60196794     0.36100
N927        N  0.86018085  0.49263859  0.64751595    -0.38700
N928        N  0.75499836  0.66643049  0.59382450    -0.38700
N929        N  0.85415041  0.57007623  0.71375732    -0.38200
N930        N  0.75537142  0.58578023  0.52926817    -0.38200
C931        C  0.62304344  0.80854462  0.86973006    -0.04800
C932        C  0.63677891  0.77575954  0.87948381    -0.02000
C933        C  0.66799618  0.76378847  0.86428846     0.03000
C934        C  0.68525143  0.78485897  0.83968541    -0.04800
C935        C  0.67280619  0.81880162  0.83200114    -0.01900
C936        C  0.64164890  0.83071896  0.84721922     0.03000
C937        C  0.61893903  0.75464917  0.90533933     0.37700
C938        C  0.69280261  0.84197374  0.80968662     0.37700
C939        C  0.62845940  0.86551967  0.83950538     0.36100
C940        C  0.68162140  0.72941184  0.87284103     0.36100
N941        N  0.61788495  0.89328157  0.83361712    -0.38700
N942        N  0.69248399  0.70193267  0.87942866    -0.38700
N943        N  0.70890604  0.86103385  0.79268908    -0.38200
N944        N  0.60484701  0.73801765  0.92623060    -0.38200
C945        C  0.62153438  0.58715968  0.74777111    -0.04800
C946        C  0.65109683  0.57992459  0.72665622    -0.02000
C947        C  0.67980758  0.60356611  0.72528574     0.03000
C948        C  0.67941861  0.63526209  0.74462739    -0.04800
C949        C  0.64997750  0.64235060  0.76585925    -0.01900
C950        C  0.62169024  0.61848165  0.76783940     0.03000
C951        C  0.65140342  0.54890882  0.70492329     0.37700
C952        C  0.64909123  0.67397162  0.78670943     0.37700
C953        C  0.59295598  0.62620008  0.79144138     0.36100
C954        C  0.70911554  0.59573381  0.70256816     0.36100
N955        N  0.57007967  0.63258390  0.81020698    -0.38700
N956        N  0.73222392  0.58907545  0.68420903    -0.38700
N957        N  0.64824414  0.69930608  0.80314752    -0.38200
N958        N  0.65151514  0.52417713  0.68754524    -0.38200
C959        C  0.93983611  0.95152396  0.49553097    -0.04800
C960        C  0.94483385  0.97047762  0.46425714    -0.02000
C961        C  0.94885835  0.00697906  0.46585695     0.03000
C962        C  0.94656884  0.02402705  0.49859471    -0.04800
C963        C  0.95348123  0.00397277  0.52881313    -0.01900
C964        C  0.95077145  0.96735056  0.52707571     0.03000
C965        C  0.94438850  0.95322299  0.43057400     0.37700
C966        C  0.96150904  0.02064506  0.56182843     0.37700
C967        C  0.95804571  0.94648293  0.55783854     0.36100
C968        C  0.95341180  0.02667311  0.43384113     0.36100
N969        N  0.96410714  0.93010967  0.58249863    -0.38700
N970        N  0.95695976  0.04216419  0.40817023    -0.38700
N971        N  0.96773637  0.03385211  0.58825276    -0.38200
N972        N  0.94406857  0.93974142  0.40355991    -0.38200
C973        C  0.86883482  0.86823836  0.56247350    -0.04800
C974        C  0.89353287  0.84937214  0.58239922    -0.02000
C975        C  0.88266336  0.83119576  0.61223703     0.03000
C976        C  0.84732764  0.83247124  0.62264068    -0.04800
C977        C  0.82262624  0.85169319  0.60315757    -0.01900
C978        C  0.83344538  0.86976639  0.57307575     0.03000
C979        C  0.92981361  0.84714470  0.57135708     0.37700
C980        C  0.78589943  0.85111513  0.61281834     0.37700
C981        C  0.80825496  0.88996931  0.55309905     0.36100
C982        C  0.90747510  0.80970489  0.63141103     0.36100
N983        N  0.78814876  0.90621016  0.53730679    -0.38700
N984        N  0.92694380  0.79217146  0.64658242    -0.38700
N985        N  0.75651425  0.85024006  0.62012395    -0.38200
N986        N  0.95880287  0.84527308  0.56277391    -0.38200
C987        C  0.65787910  0.74002351  0.56088934    -0.04800
C988        C  0.64888418  0.72305262  0.59249067    -0.02000
C989        C  0.67313606  0.72122385  0.62065960     0.03000
C990        C  0.70714000  0.73608481  0.61794993    -0.04800
C991        C  0.71614348  0.75288216  0.58642754    -0.01900
C992        C  0.69146891  0.75612661  0.55898230     0.03000
C993        C  0.61504135  0.70636044  0.59604517     0.37700
C994        C  0.75116754  0.76671757  0.58158299     0.37700
C995        C  0.70101882  0.77765805  0.52939749     0.36100
C996        C  0.66356189  0.70187513  0.65173631     0.36100
N997        N  0.71008202  0.79532915  0.50669124    -0.38700
N998        N  0.65572152  0.68621561  0.67631899    -0.38700
N999        N  0.77917857  0.77713876  0.57687779    -0.38200
N1000       N  0.58805996  0.69304046  0.59917172    -0.38200
C1001       C  0.70330996  0.72819473  0.37895091    -0.04800
C1002       C  0.70122207  0.75813892  0.40027172    -0.02000
C1003       C  0.67440971  0.76119892  0.42543593     0.03000
C1004       C  0.65288926  0.73236903  0.43358726    -0.04800
C1005       C  0.65599468  0.70159632  0.41337600    -0.01900
C1006       C  0.68058350  0.69982844  0.38562646     0.03000
C1007       C  0.72645527  0.78610123  0.39593977     0.37700
C1008       C  0.63436755  0.67162019  0.42143842     0.37700
C1009       C  0.68416442  0.66799892  0.36544681     0.36100
C1010       C  0.66702684  0.79493912  0.44097392     0.36100
N1011       N  0.68728103  0.64243721  0.34960884    -0.38700
N1012       N  0.66048151  0.82208263  0.45263086    -0.38700
N1013       N  0.61711575  0.64762765  0.42774171    -0.38200
N1014       N  0.74678805  0.80817541  0.39238532    -0.38200
C1015       C  0.84025807  0.82617783  0.37782606    -0.04800
C1016       C  0.85746646  0.80836319  0.40573986    -0.02000
C1017       C  0.87159197  0.82721515  0.43370095     0.03000
C1018       C  0.86649789  0.86354088  0.43593255    -0.04800
C1019       C  0.84821354  0.88139241  0.40937764    -0.01900
C1020       C  0.83497825  0.86279240  0.38041935     0.03000
C1021       C  0.86021479  0.77045492  0.40713147     0.37700
C1022       C  0.84196975  0.91867541  0.41245936     0.37700
C1023       C  0.81356115  0.88098050  0.35491074     0.36100
C1024       C  0.89220928  0.80909480  0.46009360     0.36100
N1025       N  0.79609749  0.89528352  0.33474445    -0.38700
N1026       N  0.90871871  0.79472899  0.48099175    -0.38700
N1027       N  0.83691760  0.94841711  0.41487122    -0.38200
N1028       N  0.86201035  0.74030896  0.40910540    -0.38200
C1029       C  0.55306434  0.87256022  0.95508045    -0.04800
C1030       C  0.58399940  0.88117271  0.97348105    -0.02000
C1031       C  0.58368321  0.88091312  0.01016101     0.03000
C1032       C  0.55228795  0.87254058  0.02796737    -0.04800
C1033       C  0.52037150  0.87632553  0.00941035    -0.01900
C1034       C  0.52073756  0.87602062  0.97276202     0.03000
C1035       C  0.61655533  0.88801041  0.95519796     0.37700
C1036       C  0.48692244  0.87923354  0.02701569     0.37700
C1037       C  0.48770415  0.87686753  0.95394115     0.36100
C1038       C  0.61603645  0.88728499  0.02892434     0.36100
N1039       N  0.46108712  0.87715481  0.93950568    -0.38700
N1040       N  0.64203544  0.89214316  0.04362354    -0.38700
N1041       N  0.45928681  0.88189583  0.03907306    -0.38200
N1042       N  0.64263960  0.89319002  0.94076180    -0.38200
C1043       C  0.61969463  0.81265884  0.12075229    -0.04800
C1044       C  0.64529057  0.79372807  0.10208303    -0.02000
C1045       C  0.67377475  0.77816838  0.11990363     0.03000
C1046       C  0.67700252  0.78182602  0.15661374    -0.04800
C1047       C  0.65152259  0.80214915  0.17479462    -0.01900
C1048       C  0.62344979  0.81764260  0.15683198     0.03000
C1049       C  0.64127249  0.78860250  0.06480807     0.37700
C1050       C  0.65251398  0.80679592  0.21230351     0.37700
C1051       C  0.59776350  0.83847452  0.17579947     0.36100
C1052       C  0.69811617  0.75638179  0.10055567     0.36100
N1053       N  0.57729555  0.85486234  0.19096965    -0.38700
N1054       N  0.71733623  0.73886092  0.08503209    -0.38700
N1055       N  0.65101099  0.81077079  0.24215300    -0.38200
N1056       N  0.63807264  0.78453239  0.03507757    -0.38200
C1057       C  0.61790400  0.57789876  0.25853214    -0.04800
C1058       C  0.61792029  0.60971670  0.27759118    -0.02000
C1059       C  0.64411129  0.63526543  0.27213788     0.03000
C1060       C  0.67376271  0.62789527  0.25101409    -0.04800
C1061       C  0.67457981  0.59515360  0.23316757    -0.01900
C1062       C  0.64641804  0.57105408  0.23605705     0.03000
C1063       C  0.59142410  0.61599342  0.30407371     0.37700
C1064       C  0.70372154  0.58632823  0.21052872     0.37700
C1065       C  0.64611012  0.53999056  0.21443273     0.36100
C1066       C  0.63968965  0.66930419  0.28829150     0.36100
N1067       N  0.64577476  0.51540339  0.19688423    -0.38700
N1068       N  0.63550973  0.69650991  0.30085239    -0.38700
N1069       N  0.72696740  0.57884119  0.19264424    -0.38200
N1070       N  0.57059498  0.62096749  0.32543557    -0.38200
C1071       C  0.93766459  0.54651141  0.18193474    -0.04800
C1072       C  0.90118380  0.54794255  0.17754620    -0.02000
C1073       C  0.88174210  0.57547074  0.19207983     0.03000
C1074       C  0.89905020  0.60426136  0.20824331    -0.04800
C1075       C  0.93612053  0.60325258  0.21137426    -0.01900
C1076       C  0.95524059  0.57430177  0.19849197     0.03000
C1077       C  0.88360230  0.52152131  0.15666186     0.37700
C1078       C  0.95471578  0.63083528  0.22952088     0.37700
C1079       C  0.99292736  0.57278629  0.20299452     0.36100
C1080       C  0.84381195  0.57278912  0.19068347     0.36100
N1081       N  0.02299007  0.57175458  0.20662846    -0.38700
N1082       N  0.81366205  0.56990232  0.18989132    -0.38700
N1083       N  0.96948587  0.65279035  0.24410856    -0.38200
N1084       N  0.86973501  0.50075088  0.13967301    -0.38200
C1085       C  0.90573296  0.36292064  0.20678853    -0.04800
C1086       C  0.90889366  0.36871025  0.17063491    -0.02000
C1087       C  0.92857890  0.39716834  0.15814043     0.03000
C1088       C  0.94594053  0.41940122  0.18184214    -0.04800
C1089       C  0.94515790  0.41171682  0.21785009    -0.01900
C1090       C  0.92395796  0.38440276  0.23041965     0.03000
C1091       C  0.89046411  0.34622032  0.14640409     0.37700
C1092       C  0.96708625  0.43122301  0.24178447     0.37700
C1093       C  0.91954393  0.37964285  0.26761596     0.36100
C1094       C  0.92960057  0.40431624  0.12104023     0.36100
N1095       N  0.91574235  0.37654272  0.29736357    -0.38700
N1096       N  0.93025888  0.40975604  0.09136968    -0.38700
N1097       N  0.98516234  0.44619497  0.26080324    -0.38200
N1098       N  0.87549084  0.32828146  0.12730087    -0.38200
C1099       C  0.79503922  0.54946072  0.40538826    -0.04800
C1100       C  0.82169271  0.57480512  0.40839269    -0.02000
C1101       C  0.82503717  0.60186988  0.38315797     0.03000
C1102       C  0.80171120  0.60413343  0.35423221    -0.04800
C1103       C  0.77445758  0.57929787  0.35195991    -0.01900
C1104       C  0.77095826  0.55259891  0.37736179     0.03000
C1105       C  0.84675555  0.57217555  0.43670409     0.37700
C1106       C  0.74923040  0.58137737  0.32375827     0.37700
C1107       C  0.74157135  0.52887292  0.37483493     0.36100
C1108       C  0.85364517  0.62645431  0.38651923     0.36100
N1109       N  0.71758074  0.51072245  0.37208526    -0.38700
N1110       N  0.87657780  0.64587508  0.38970722    -0.38700
N1111       N  0.72909213  0.58265856  0.30126501    -0.38200
N1112       N  0.86664650  0.56994742  0.45937038    -0.38200
C1113       C  0.80025780  0.42213953  0.40626057    -0.04800
C1114       C  0.83239436  0.40461930  0.40128430    -0.02000
C1115       C  0.83562316  0.37806585  0.37556866     0.03000
C1116       C  0.80713660  0.36920476  0.35350623    -0.04800
C1117       C  0.77499909  0.38689982  0.35871344    -0.01900
C1118       C  0.77137959  0.41236534  0.38541491     0.03000
C1119       C  0.86258538  0.41478854  0.42187723     0.37700
C1120       C  0.74524223  0.37866208  0.33694999     0.37700
C1121       C  0.73732861  0.42751371  0.39257838     0.36100
C1122       C  0.86913591  0.36133794  0.37084852     0.36100
N1123       N  0.70994460  0.43890342  0.39882352    -0.38700
N1124       N  0.89654978  0.34900145  0.36770514    -0.38700
N1125       N  0.72130891  0.37264149  0.31955125    -0.38200
N1126       N  0.88667710  0.42294259  0.43824015    -0.38200
C1127       C  0.49353743  0.58378269  0.74397806    -0.04800
C1128       C  0.46881052  0.58059133  0.77114085    -0.02000
C1129       C  0.44015445  0.60425228  0.77357225     0.03000
C1130       C  0.43547319  0.63118537  0.74846301    -0.04800
C1131       C  0.45967887  0.63324861  0.72062787    -0.01900
C1132       C  0.48862034  0.61021034  0.71866713     0.03000
C1133       C  0.47389211  0.55402227  0.79766652     0.37700
C1134       C  0.45432513  0.65818521  0.69282890     0.37700
C1135       C  0.51336660  0.61372389  0.69013868     0.36100
C1136       C  0.41662854  0.60159542  0.80301452     0.36100
N1137       N  0.53301864  0.61685595  0.66739590    -0.38700
N1138       N  0.39840353  0.59894338  0.82692264    -0.38700
N1139       N  0.45057153  0.67760824  0.67009202    -0.38200
N1140       N  0.47812959  0.53278784  0.81875305    -0.38200
C1141       C  0.43077617  0.77516134  0.84243644    -0.04800
C1142       C  0.43542227  0.81126804  0.84753125    -0.02000
C1143       C  0.46804059  0.82421233  0.85792732     0.03000
C1144       C  0.49535091  0.80086135  0.86637752    -0.04800
C1145       C  0.49067947  0.76449019  0.86182169    -0.01900
C1146       C  0.45848844  0.75174398  0.84931606     0.03000
C1147       C  0.40722903  0.83552202  0.84051859     0.37700
C1148       C  0.51900011  0.74021415  0.86903001     0.37700
C1149       C  0.45400689  0.71468670  0.84253212     0.36100
C1150       C  0.47451493  0.86161450  0.85657672     0.36100
N1151       N  0.45025674  0.68522876  0.83684499    -0.38700
N1152       N  0.47992828  0.89130942  0.85484760    -0.38700
N1153       N  0.54152924  0.72061978  0.87430160    -0.38200
N1154       N  0.38511288  0.85556324  0.83564947    -0.38200
C1155       C  0.09419600  0.48259517  0.89151365    -0.04800
C1156       C  0.07559565  0.45086538  0.89483471    -0.02000
C1157       C  0.03871714  0.45163641  0.89484132     0.03000
C1158       C  0.02118079  0.48396522  0.88997495    -0.04800
C1159       C  0.03959336  0.51473380  0.89887183    -0.01900
C1160       C  0.07641938  0.51373977  0.90061858     0.03000
C1161       C  0.09384965  0.41766266  0.89745743     0.37700
C1162       C  0.02110337  0.54726483  0.90525889     0.37700
C1163       C  0.09584279  0.54448776  0.91109479     0.36100
C1164       C  0.01945598  0.41939957  0.89956537     0.36100
N1165       N  0.11143105  0.56883847  0.91986519    -0.38700
N1166       N  0.00477453  0.39335689  0.90392176    -0.38700
N1167       N  0.00633563  0.57323168  0.91034738    -0.38200
N1168       N  0.10801114  0.39096674  0.89972579    -0.38200
C1169       C  0.20893535  0.61138113  0.79346760    -0.04800
C1170       C  0.18452882  0.59232495  0.77364301    -0.02000
C1171       C  0.16828774  0.56275075  0.78830847     0.03000
C1172       C  0.17712409  0.55188421  0.82237276    -0.04800
C1173       C  0.19925886  0.57261004  0.84311836    -0.01900
C1174       C  0.21469433  0.60268722  0.82882129     0.03000
C1175       C  0.17650497  0.60279785  0.73819498     0.37700
C1176       C  0.20683578  0.56256622  0.87882412     0.37700
C1177       C  0.23567125  0.62534749  0.85076153     0.36100
C1178       C  0.14176963  0.54403708  0.76882819     0.36100
N1179       N  0.25186082  0.64366737  0.86848686    -0.38700
N1180       N  0.12008733  0.52955440  0.75355971    -0.38700
N1181       N  0.21294333  0.55467387  0.90731892    -0.38200
N1182       N  0.17000285  0.61102652  0.70987920    -0.38200
C1183       C  0.31305327  0.60203612  0.64732830    -0.04800
C1184       C  0.28816779  0.57484951  0.64873006    -0.02000
C1185       C  0.28810867  0.54802273  0.62320684     0.03000
C1186       C  0.31336481  0.54745663  0.59598513    -0.04800
C1187       C  0.33864967  0.57427134  0.59497117    -0.01900
C1188       C  0.33896073  0.60080212  0.62090118     0.03000
C1189       C  0.26283951  0.57402556  0.67682796     0.37700
C1190       C  0.36563798  0.57352933  0.56840880     0.37700
C1191       C  0.36845890  0.62432108  0.62286910     0.36100
C1192       C  0.26182238  0.52074260  0.62507713     0.36100
N1193       N  0.39283086  0.64202751  0.62499875    -0.38700
N1194       N  0.24102443  0.49886079  0.62657478    -0.38700
N1195       N  0.38716965  0.57304656  0.54718617    -0.38200
N1196       N  0.24289009  0.57283689  0.69947340    -0.38200
C1197       C  0.26002423  0.82388444  0.61844564    -0.04800
C1198       C  0.22433831  0.83370042  0.61918295    -0.02000
C1199       C  0.20777165  0.84673746  0.58904535     0.03000
C1200       C  0.22679190  0.84989762  0.55777282    -0.04800
C1201       C  0.26260201  0.84017266  0.55691855    -0.01900
C1202       C  0.27880538  0.82639924  0.58689633     0.03000
C1203       C  0.20355990  0.82703785  0.64985075     0.37700
C1204       C  0.28314905  0.84443787  0.52533650     0.37700
C1205       C  0.31425914  0.81298502  0.58453874     0.36100
C1206       C  0.17057944  0.85480282  0.58965389     0.36100
N1207       N  0.34218443  0.80156242  0.58179388    -0.38700
N1208       N  0.14091116  0.86105109  0.58999775    -0.38700
N1209       N  0.29959815  0.84765151  0.50020227    -0.38200
N1210       N  0.18645151  0.82147216  0.67399274    -0.38200
C1211       C  0.41319682  0.73026325  0.61933163    -0.04800
C1212       C  0.40397007  0.71515081  0.58678047    -0.02000
C1213       C  0.42903427  0.71139268  0.55977934     0.03000
C1214       C  0.46321375  0.72600614  0.56262875    -0.04800
C1215       C  0.47272636  0.74109021  0.59489248    -0.01900
C1216       C  0.44838550  0.74282805  0.62299018     0.03000
C1217       C  0.36854773  0.70305404  0.58023224     0.37700
C1218       C  0.50741374  0.75581400  0.59929068     0.37700
C1219       C  0.45995161  0.75909107  0.65521169     0.36100
C1220       C  0.41930760  0.69127462  0.52911259     0.36100
N1221       N  0.46942481  0.77207446  0.68077541    -0.38700
N1222       N  0.41138401  0.67533186  0.50472319    -0.38700
N1223       N  0.53504160  0.76755067  0.60311134    -0.38200
N1224       N  0.34044551  0.69331202  0.57460487    -0.38200
C1225       C  0.49727682  0.39388589  0.73969289    -0.04800
C1226       C  0.47307575  0.39566159  0.76750981    -0.02000
C1227       C  0.44616784  0.37031793  0.77078796     0.03000
C1228       C  0.44199725  0.34345591  0.74557365    -0.04800
C1229       C  0.46517269  0.34284105  0.71683628    -0.01900
C1230       C  0.49290623  0.36726277  0.71430949     0.03000
C1231       C  0.47656620  0.42276845  0.79370041     0.37700
C1232       C  0.45947509  0.31830954  0.68862848     0.37700
C1233       C  0.51665709  0.36516512  0.68488474     0.36100
C1234       C  0.42381318  0.37112639  0.80124599     0.36100
N1235       N  0.53539707  0.36303503  0.66128240    -0.38700
N1236       N  0.40642334  0.37190541  0.82589362    -0.38700
N1237       N  0.45499474  0.29920038  0.66571471    -0.38200
N1238       N  0.47906257  0.44443152  0.81460193    -0.38200
C1239       C  0.44128902  0.20120418  0.84476901    -0.04800
C1240       C  0.45928737  0.17076727  0.83391588    -0.02000
C1241       C  0.48252862  0.15398359  0.85664677     0.03000
C1242       C  0.49172288  0.16993339  0.88829308    -0.04800
C1243       C  0.47538433  0.20134065  0.89861186    -0.01900
C1244       C  0.45066519  0.21739295  0.87642443     0.03000
C1245       C  0.45724083  0.15868610  0.79821238     0.37700
C1246       C  0.48418692  0.21720715  0.93178140     0.37700
C1247       C  0.44021579  0.25322293  0.88272027     0.36100
C1248       C  0.49728516  0.12018212  0.84741220     0.36100
N1249       N  0.43369403  0.28247299  0.88684134    -0.38700
N1250       N  0.50864320  0.09300381  0.84039011    -0.38700
N1251       N  0.49060607  0.22974772  0.95847669    -0.38200
N1252       N  0.45763338  0.15004778  0.76933495    -0.38200
C1253       C  0.32269135  0.42120643  0.59596705    -0.04800
C1254       C  0.34819081  0.41754304  0.62260991    -0.02000
C1255       C  0.34549493  0.39067473  0.64786243     0.03000
C1256       C  0.31697327  0.36723718  0.64732785    -0.04800
C1257       C  0.29096020  0.37169871  0.62132002    -0.01900
C1258       C  0.29398368  0.39813186  0.59563539     0.03000
C1259       C  0.37689810  0.44221176  0.62482160     0.37700
C1260       C  0.25910999  0.35151789  0.62297543     0.37700
C1261       C  0.26590729  0.40344753  0.57067742     0.36100
C1262       C  0.37195719  0.38782889  0.67476391     0.36100
N1263       N  0.24333017  0.40779442  0.55100861    -0.38700
N1264       N  0.39306362  0.38633415  0.69632120    -0.38700
N1265       N  0.23303998  0.33640170  0.62436038    -0.38200
N1266       N  0.39965451  0.46197998  0.62705122    -0.38200
C1267       C  0.18324171  0.42432309  0.81844562    -0.04800
C1268       C  0.19789944  0.39944989  0.84143548    -0.02000
C1269       C  0.21563468  0.37018734  0.82804808     0.03000
C1270       C  0.21750358  0.36472555  0.79180853    -0.04800
C1271       C  0.20214014  0.38885817  0.76867960    -0.01900
C1272       C  0.18548069  0.41897892  0.78195231     0.03000
C1273       C  0.19657290  0.40479123  0.87887429     0.37700
C1274       C  0.20399058  0.38299971  0.73131954     0.37700
C1275       C  0.17097602  0.44437739  0.75786809     0.36100
C1276       C  0.23392248  0.34665743  0.85147743     0.36100
N1277       N  0.15991039  0.46435308  0.73805589    -0.38700
N1278       N  0.24908778  0.32807405  0.86986148    -0.38700
N1279       N  0.20519883  0.37844743  0.70150618    -0.38200
N1280       N  0.19556714  0.40880102  0.90876295    -0.38200
C1281       C  0.19410559  0.02146899  0.49940496    -0.04800
C1282       C  0.16077131  0.00711024  0.50539538    -0.02000
C1283       C  0.15640177  0.97061950  0.50373923     0.03000
C1284       C  0.18568262  0.94924721  0.49691684    -0.04800
C1285       C  0.21915633  0.96391042  0.49176454    -0.01900
C1286       C  0.22319963  0.99998092  0.49221602     0.03000
C1287       C  0.13145285  0.02986664  0.51344902     0.37700
C1288       C  0.24994622  0.94182727  0.48721933     0.37700
C1289       C  0.25771730  0.01482695  0.48619754     0.36100
C1290       C  0.12232647  0.95517718  0.50950490     0.36100
N1291       N  0.28527831  0.02624214  0.48119054    -0.38700
N1292       N  0.09500858  0.94303798  0.51412624    -0.38700
N1293       N  0.27449729  0.92442165  0.48352361    -0.38200
N1294       N  0.10825228  0.04826013  0.51998590    -0.38200
C1295       C  0.23659393  0.11527294  0.57016047    -0.04800
C1296       C  0.26585069  0.10016571  0.58694666    -0.02000
C1297       C  0.27741539  0.11391788  0.61885226     0.03000
C1298       C  0.26006572  0.14305930  0.63315407    -0.04800
C1299       C  0.22829163  0.15489455  0.61860000    -0.01900
C1300       C  0.21709635  0.14179372  0.58645402     0.03000
C1301       C  0.28484195  0.07149154  0.57088844     0.37700
C1302       C  0.20599852  0.17878840  0.63774286     0.37700
C1303       C  0.18590219  0.15594837  0.56996394     0.36100
C1304       C  0.30669760  0.09796028  0.63697721     0.36100
N1305       N  0.16113918  0.16750123  0.55687174    -0.38700
N1306       N  0.32944032  0.08451763  0.65178194    -0.38700
N1307       N  0.18718987  0.19692153  0.65297010    -0.38200
N1308       N  0.30036094  0.04867171  0.55843092    -0.38200
C1309       C  0.24136735  0.12126093  0.44314330    -0.04800
C1310       C  0.27787920  0.12144350  0.43721164    -0.02000
C1311       C  0.29079323  0.13069732  0.40420176     0.03000
C1312       C  0.26731573  0.14178882  0.37816348    -0.04800
C1313       C  0.23095430  0.14197900  0.38426813    -0.01900
C1314       C  0.21792424  0.13071762  0.41641540     0.03000
C1315       C  0.30209964  0.11213373  0.46488095     0.37700
C1316       C  0.20700757  0.15549917  0.35811668     0.37700
C1317       C  0.18038525  0.12981481  0.42232939     0.36100
C1318       C  0.32809646  0.12919480  0.39705060     0.36100
N1319       N  0.15046268  0.12895192  0.42694516    -0.38700
N1320       N  0.35784840  0.12789232  0.39142571    -0.38700
N1321       N  0.18783955  0.16633680  0.33739665    -0.38200
N1322       N  0.32149698  0.10512781  0.48700975    -0.38200
C1323       C  0.46489238  0.24462493  0.56367262    -0.04800
C1324       C  0.47173288  0.22355713  0.59312918    -0.02000
C1325       C  0.44760662  0.22225024  0.62138554     0.03000
C1326       C  0.41565795  0.24186166  0.62072075    -0.04800
C1327       C  0.41000746  0.26447614  0.59196842    -0.01900
C1328       C  0.43435518  0.26595533  0.56400497     0.03000
C1329       C  0.50329712  0.20237876  0.59417179     0.37700
C1330       C  0.38004341  0.28787664  0.59171327     0.37700
C1331       C  0.42848907  0.29067037  0.53584346     0.36100
C1332       C  0.45617836  0.20025038  0.65102016     0.36100
N1333       N  0.42409044  0.31036188  0.51334219    -0.38700
N1334       N  0.46361069  0.18292814  0.67464749    -0.38700
N1335       N  0.35633823  0.30679115  0.59134407    -0.38200
N1336       N  0.52853533  0.18558352  0.59523238    -0.38200
C1337       C  0.46176888  0.23189851  0.43705907    -0.04800
C1338       C  0.47058991  0.24732814  0.40468902    -0.02000
C1339       C  0.44624816  0.24759917  0.37656381     0.03000
C1340       C  0.41151671  0.23470978  0.38085248    -0.04800
C1341       C  0.40248017  0.22026131  0.41356490    -0.01900
C1342       C  0.42791501  0.21658156  0.44022860     0.03000
C1343       C  0.50417521  0.26432267  0.40035177     0.37700
C1344       C  0.36670304  0.20985162  0.42068330     0.37700
C1345       C  0.41913053  0.19563413  0.47058514     0.36100
C1346       C  0.45689002  0.26281011  0.34357276     0.36100
N1347       N  0.41208971  0.17871682  0.49458910    -0.38700
N1348       N  0.46563613  0.27465909  0.31722637    -0.38700
N1349       N  0.33806696  0.20253411  0.42718945    -0.38200
N1350       N  0.53080558  0.27815537  0.39655844    -0.38200
C1351       C  0.43856773  0.62801335  0.25444760    -0.04800
C1352       C  0.44985187  0.61040490  0.22396574    -0.02000
C1353       C  0.47646135  0.58463170  0.22564639     0.03000
C1354       C  0.49073144  0.57449130  0.25803077    -0.04800
C1355       C  0.47778054  0.59021826  0.28881980    -0.01900
C1356       C  0.45195277  0.61693122  0.28707319     0.03000
C1357       C  0.43372164  0.61831415  0.19070096     0.37700
C1358       C  0.49099971  0.57864019  0.32234558     0.37700
C1359       C  0.43767743  0.63149038  0.31897328     0.36100
C1360       C  0.48997883  0.56921314  0.19380623     0.36100
N1361       N  0.42597748  0.64262747  0.34451203    -0.38700
N1362       N  0.50090584  0.55706024  0.16839523    -0.38700
N1363       N  0.50144293  0.56910530  0.34904311    -0.38200
N1364       N  0.42087494  0.62410608  0.16400484    -0.38200
C1365       C  0.49282244  0.80171085  0.11782916    -0.04800
C1366       C  0.49260177  0.76653373  0.12936552    -0.02000
C1367       C  0.46339173  0.75349311  0.14748571     0.03000
C1368       C  0.43278486  0.77399354  0.15049525    -0.04800
C1369       C  0.43174061  0.80742372  0.13515848    -0.01900
C1370       C  0.46245173  0.82235976  0.12183515     0.03000
C1371       C  0.52224070  0.74361119  0.12275071     0.37700
C1372       C  0.39943827  0.82699917  0.13321161     0.37700
C1373       C  0.46370365  0.85989000  0.11660964     0.36100
C1374       C  0.46477089  0.71881304  0.16265884     0.36100
N1375       N  0.46469379  0.88998040  0.11373227    -0.38700
N1376       N  0.46619268  0.69119499  0.17482418    -0.38700
N1377       N  0.37407972  0.84314876  0.12996003    -0.38200
N1378       N  0.54575946  0.72522356  0.11740897    -0.38200
C1379       C  0.41677608  0.73620127  0.37739719    -0.04800
C1380       C  0.45253400  0.72597710  0.37398530    -0.02000
C1381       C  0.47540740  0.72590685  0.40326922     0.03000
C1382       C  0.46400628  0.73881342  0.43600895    -0.04800
C1383       C  0.42921287  0.75236464  0.43827459    -0.01900
C1384       C  0.40563054  0.74972314  0.40992962     0.03000
C1385       C  0.46626820  0.71514499  0.34037915     0.37700
C1386       C  0.41724158  0.77014980  0.46961902     0.37700
C1387       C  0.36993171  0.76214870  0.41450707     0.36100
C1388       C  0.51022547  0.71111801  0.39955055     0.36100
N1389       N  0.34156306  0.77198156  0.41877418    -0.38700
N1390       N  0.53783676  0.69903453  0.39613476    -0.38700
N1391       N  0.40746006  0.78423751  0.49450905    -0.38200
N1392       N  0.47747665  0.70700981  0.31352696    -0.38200
C1393       C  0.26099361  0.81906958  0.37818834    -0.04800
C1394       C  0.25726253  0.85579037  0.38027442    -0.02000
C1395       C  0.23645083  0.87090988  0.40674673     0.03000
C1396       C  0.21956858  0.84935419  0.43172568    -0.04800
C1397       C  0.22213324  0.81284092  0.42872186    -0.01900
C1398       C  0.24418116  0.79780863  0.40369252     0.03000
C1399       C  0.27594037  0.87830219  0.35614479     0.37700
C1400       C  0.20152817  0.79033914  0.45140368     0.37700
C1401       C  0.24965270  0.76028124  0.40579016     0.36100
C1402       C  0.23290333  0.90865047  0.40780994     0.36100
N1403       N  0.25410695  0.73054167  0.40905669    -0.38700
N1404       N  0.23021561  0.93879247  0.40768804    -0.38700
N1405       N  0.18513733  0.77235165  0.46929458    -0.38200
N1406       N  0.29082812  0.89628887  0.33697894    -0.38200
C1407       C  0.10176506  0.48932281  0.10410508    -0.04800
C1408       C  0.08362022  0.52119463  0.10159504    -0.02000
C1409       C  0.04706763  0.52143190  0.10652107     0.03000
C1410       C  0.02937054  0.48909846  0.11144320    -0.04800
C1411       C  0.04663325  0.45829922  0.09989158    -0.01900
C1412       C  0.08320450  0.45873301  0.09551471     0.03000
C1413       C  0.10270453  0.55315267  0.09493279     0.37700
C1414       C  0.02773872  0.42601912  0.09411434     0.37700
C1415       C  0.10193039  0.42742154  0.08501113     0.36100
C1416       C  0.02880425  0.55467379  0.10811345     0.36100
N1417       N  0.11698734  0.40249549  0.07665615    -0.38700
N1418       N  0.01445427  0.58133241  0.10952445    -0.38700
N1419       N  0.01317067  0.39996788  0.08942632    -0.38200
N1420       N  0.11797696  0.57859871  0.08923971    -0.38200
C1421       C  0.18191595  0.54354821  0.19063190    -0.04800
C1422       C  0.16442291  0.57634916  0.19006386    -0.02000
C1423       C  0.18115444  0.60660482  0.20286655     0.03000
C1424       C  0.21368163  0.60377856  0.22034987    -0.04800
C1425       C  0.22769692  0.57004666  0.22660550    -0.01900
C1426       C  0.21410878  0.54090345  0.20903517     0.03000
C1427       C  0.12864526  0.57936328  0.17780921     0.37700
C1428       C  0.25566053  0.56479024  0.25185677     0.37700
C1429       C  0.23509911  0.50914922  0.20845438     0.36100
C1430       C  0.16474410  0.64044537  0.19735324     0.36100
N1431       N  0.25227936  0.48417181  0.20780942    -0.38700
N1432       N  0.15161511  0.66739546  0.19294603    -0.38700
N1433       N  0.27749367  0.56031774  0.27232886    -0.38200
N1434       N  0.09985569  0.58262477  0.16898051    -0.38200
C1435       C  0.17491561  0.41621889  0.17927270    -0.04800
C1436       C  0.19800470  0.39689094  0.15804102    -0.02000
C1437       C  0.21411924  0.36666441  0.17133176     0.03000
C1438       C  0.20781120  0.35637467  0.20607998    -0.04800
C1439       C  0.18168342  0.37332920  0.22580147    -0.01900
C1440       C  0.16507990  0.40331690  0.21226867     0.03000
C1441       C  0.20586153  0.40859677  0.12292187     0.37700
C1442       C  0.17203805  0.36011384  0.25983874     0.37700
C1443       C  0.13726801  0.42038903  0.23166352     0.36100
C1444       C  0.23636347  0.34551201  0.14898757     0.36100
N1445       N  0.11466606  0.43373997  0.24677752    -0.38700
N1446       N  0.25355918  0.32834778  0.13094112    -0.38700
N1447       N  0.16400064  0.34960826  0.28694388    -0.38200
N1448       N  0.21193355  0.41792644  0.09487119    -0.38200
C1449       C  0.32314896  0.54664027  0.40439562    -0.04800
C1450       C  0.34383029  0.54671395  0.37360363    -0.02000
C1451       C  0.34151679  0.57449093  0.34912971     0.03000
C1452       C  0.31833682  0.60298563  0.35468128    -0.04800
C1453       C  0.29806179  0.60300479  0.38595849    -0.01900
C1454       C  0.30096532  0.57549600  0.41072295     0.03000
C1455       C  0.36794427  0.51801931  0.36698394     0.37700
C1456       C  0.27216710  0.63007917  0.39211326     0.37700
C1457       C  0.27964744  0.57615700  0.44205383     0.36100
C1458       C  0.36328734  0.57332236  0.31819376     0.36100
N1459       N  0.26278857  0.57667357  0.46712685    -0.38700
N1460       N  0.38057586  0.57174392  0.29347282    -0.38700
N1461       N  0.25110492  0.65117785  0.39753935    -0.38200
N1462       N  0.38697683  0.49502716  0.36165020    -0.38200
C1463       C  0.31075091  0.41991599  0.40542555    -0.04800
C1464       C  0.33578871  0.39271299  0.40741437    -0.02000
C1465       C  0.33553772  0.36493204  0.38279370     0.03000
C1466       C  0.31036494  0.36402334  0.35555951    -0.04800
C1467       C  0.28510054  0.39097915  0.35386084    -0.01900
C1468       C  0.28523739  0.41860330  0.37849711     0.03000
C1469       C  0.36318123  0.39443629  0.43352646     0.37700
C1470       C  0.25817251  0.38976507  0.32724415     0.37700
C1471       C  0.25883072  0.44584574  0.37600607     0.36100
C1472       C  0.36249041  0.33821687  0.38448919     0.36100
N1473       N  0.23783099  0.46761323  0.37384128    -0.38700
N1474       N  0.38426841  0.31717432  0.38591888    -0.38700
N1475       N  0.23667497  0.38868507  0.30603098    -0.38200
N1476       N  0.38506268  0.39609105  0.45433073    -0.38200
C1477       C  0.18070621  0.28281352  0.34324645    -0.04800
C1478       C  0.14674074  0.27241123  0.33323657    -0.02000
C1479       C  0.11759109  0.29330944  0.34117838     0.03000
C1480       C  0.12177594  0.32496067  0.36027347    -0.04800
C1481       C  0.15578416  0.33408874  0.37226055    -0.01900
C1482       C  0.18480994  0.31240395  0.36483936     0.03000
C1483       C  0.14154362  0.23976642  0.31443393     0.37700
C1484       C  0.16158495  0.36642760  0.39125453     0.37700
C1485       C  0.21857480  0.32052151  0.38006455     0.36100
C1486       C  0.08357157  0.28111440  0.32939435     0.36100
N1487       N  0.24494168  0.32686784  0.39345941    -0.38700
N1488       N  0.05683950  0.27090014  0.31956494    -0.38700
N1489       N  0.16634241  0.39211646  0.40645530    -0.38200
N1490       N  0.13709171  0.21409517  0.29913427    -0.38200
C1491       C  0.99611411  0.33338265  0.35817056    -0.04800
C1492       C  0.97351903  0.31451985  0.38083424    -0.02000
C1493       C  0.94737472  0.29247768  0.36707943     0.03000
C1494       C  0.94303633  0.28940349  0.33067947    -0.04800
C1495       C  0.96648073  0.30769430  0.30815225    -0.01900
C1496       C  0.99166484  0.33047230  0.32189269     0.03000
C1497       C  0.97706382  0.31681659  0.41844145     0.37700
C1498       C  0.96646057  0.30287198  0.27056772     0.37700
C1499       C  0.01369322  0.35060651  0.29830773     0.36100
C1500       C  0.92516834  0.27268882  0.39061191     0.36100
N1501       N  0.03140428  0.36629380  0.27952060    -0.38700
N1502       N  0.90729812  0.25709211  0.40932011    -0.38700
N1503       N  0.96828526  0.29916044  0.24067597    -0.38200
N1504       N  0.97916780  0.31847478  0.44850154    -0.38200
C1505       C  0.17571252  0.12770650  0.24506654    -0.04800
C1506       C  0.17489503  0.09675064  0.26578464    -0.02000
C1507       C  0.14859971  0.07098363  0.26075337     0.03000
C1508       C  0.12261838  0.07541830  0.23494454    -0.04800
C1509       C  0.12449591  0.10526632  0.21310165    -0.01900
C1510       C  0.15013135  0.13142592  0.21855759     0.03000
C1511       C  0.20057792  0.09137961  0.29312837     0.37700
C1512       C  0.10031855  0.10870727  0.18405770     0.37700
C1513       C  0.15014785  0.16189628  0.19612717     0.36100
C1514       C  0.14790010  0.04023084  0.28283679     0.36100
N1515       N  0.14939822  0.18614836  0.17814624    -0.38700
N1516       N  0.14762309  0.01560665  0.30036055    -0.38700
N1517       N  0.08129303  0.11139005  0.16071434    -0.38200
N1518       N  0.22100987  0.08654375  0.31489445    -0.38200
C1519       C  0.99622105  0.07888223  0.24287320    -0.04800
C1520       C  0.99822406  0.10807167  0.26579560    -0.02000
C1521       C  0.97350628  0.13570730  0.26393202     0.03000
C1522       C  0.94414773  0.13316554  0.24181567    -0.04800
C1523       C  0.94269216  0.10483811  0.21810122    -0.01900
C1524       C  0.96811170  0.07760848  0.21893675     0.03000
C1525       C  0.02599445  0.10980832  0.29161839     0.37700
C1526       C  0.91845511  0.10699212  0.18918315     0.37700
C1527       C  0.96632233  0.04947400  0.19374686     0.36100
C1528       C  0.98049428  0.16814537  0.28205564     0.36100
N1529       N  0.96468360  0.02711076  0.17351728    -0.38700
N1530       N  0.98734864  0.19436127  0.29543354    -0.38700
N1531       N  0.90029245  0.11000001  0.16523957    -0.38200
N1532       N  0.04818531  0.11094246  0.31213767    -0.38200
C1533       C  0.93259398  0.69358343  0.34093356    -0.04800
C1534       C  0.95171501  0.71493503  0.36403288    -0.02000
C1535       C  0.98148003  0.70123248  0.38101581     0.03000
C1536       C  0.99351119  0.66732310  0.37279610    -0.04800
C1537       C  0.97384185  0.64575210  0.35051693    -0.01900
C1538       C  0.94287931  0.65856042  0.33543392     0.03000
C1539       C  0.94174870  0.75110289  0.36950216     0.37700
C1540       C  0.98559120  0.61046187  0.34293401     0.37700
C1541       C  0.92085462  0.63539473  0.31508439     0.36100
C1542       C  0.99859132  0.72114484  0.40825898     0.36100
N1543       N  0.90280186  0.61689810  0.29946659    -0.38700
N1544       N  0.01156575  0.73661413  0.43070617    -0.38700
N1545       N  0.99500438  0.58233030  0.33689270    -0.38200
N1546       N  0.93469738  0.78021839  0.37384539    -0.38200
C1547       C  0.12186043  0.66643598  0.37526759    -0.04800
C1548       C  0.12987835  0.70238465  0.37717698    -0.02000
C1549       C  0.16122807  0.71503839  0.36263774     0.03000
C1550       C  0.18502493  0.69181977  0.34675283    -0.04800
C1551       C  0.17745625  0.65573182  0.34559765    -0.01900
C1552       C  0.14579304  0.64309419  0.35953612     0.03000
C1553       C  0.10565678  0.72662939  0.39350338     0.37700
C1554       C  0.20144394  0.63183233  0.32838287     0.37700
C1555       C  0.13654427  0.60660420  0.35508018     0.36100
C1556       C  0.16807498  0.75220365  0.36257353     0.36100
N1557       N  0.12890077  0.57763017  0.35112340    -0.38700
N1558       N  0.17282291  0.78201102  0.36260409    -0.38700
N1559       N  0.22057249  0.61272749  0.31474245    -0.38200
N1560       N  0.08663083  0.74639816  0.40631332    -0.38200
C1561       C  0.93517918  0.83725999  0.24323188    -0.04800
C1562       C  0.96646573  0.82945123  0.26139407    -0.02000
C1563       C  0.99489044  0.85328816  0.26152045     0.03000
C1564       C  0.99395192  0.88449330  0.24128349    -0.04800
C1565       C  0.96270639  0.89218767  0.22288036    -0.01900
C1566       C  0.93353309  0.86912362  0.22424896     0.03000
C1567       C  0.96974839  0.79658659  0.27998928     0.37700
C1568       C  0.96084762  0.92299928  0.20099484     0.37700
C1569       C  0.90262804  0.87729385  0.20388509     0.36100
C1570       C  0.02471176  0.84598814  0.28385656     0.36100
N1571       N  0.87829728  0.88413956  0.18726533    -0.38700
N1572       N  0.04829973  0.84016682  0.30191507    -0.38700
N1573       N  0.95898715  0.94739292  0.18325991    -0.38200
N1574       N  0.97269609  0.77008310  0.29423369    -0.38200
C1575       C  0.12223867  0.88693539  0.23450123    -0.04800
C1576       C  0.13753870  0.87995467  0.26728364    -0.02000
C1577       C  0.16601155  0.85632702  0.27031470     0.03000
C1578       C  0.17955252  0.83893208  0.24072163    -0.04800
C1579       C  0.16619810  0.84817653  0.20750087    -0.01900
C1580       C  0.13708600  0.87129123  0.20448626     0.03000
C1581       C  0.12363790  0.89693182  0.29814236     0.37700
C1582       C  0.18385983  0.83580499  0.17638413     0.37700
C1583       C  0.12256426  0.87924664  0.17048045     0.36100
C1584       C  0.18200919  0.85067934  0.30399419     0.36100
N1585       N  0.11098217  0.88566392  0.14332946    -0.38700
N1586       N  0.19496163  0.84685329  0.33094341    -0.38700
N1587       N  0.19826505  0.82644941  0.15151525    -0.38200
N1588       N  0.11255435  0.91060625  0.32270085    -0.38200
C1589       C  0.05641362  0.59199365  0.53247343    -0.04800
C1590       C  0.02419234  0.58799668  0.51466323    -0.02000
C1591       C  0.02353241  0.59057498  0.47801325     0.03000
C1592       C  0.05529680  0.59600076  0.45970380    -0.04800
C1593       C  0.08679994  0.58692328  0.47686888    -0.01900
C1594       C  0.08735551  0.58510233  0.51351821     0.03000
C1595       C  0.99198192  0.58150967  0.53360048     0.37700
C1596       C  0.11848708  0.57980717  0.45722758     0.37700
C1597       C  0.11936635  0.57529754  0.53117067     0.36100
C1598       C  0.99035771  0.58823413  0.45974406     0.36100
N1599       N  0.14535490  0.56644701  0.54391415    -0.38700
N1600       N  0.96381471  0.58623186  0.44532503    -0.38700
N1601       N  0.14381099  0.57387774  0.44172076    -0.38200
N1602       N  0.96627703  0.57607794  0.54860890    -0.38200
C1603       C  0.12092732  0.66604146  0.61699752    -0.04800
C1604       C  0.15296028  0.64780202  0.61893893    -0.02000
C1605       C  0.18328496  0.66513528  0.63012976     0.03000
C1606       C  0.18031567  0.69712884  0.64825312    -0.04800
C1607       C  0.14779394  0.71484408  0.64817496    -0.01900
C1608       C  0.11935902  0.70093371  0.62945198     0.03000
C1609       C  0.15391707  0.61009887  0.61602244     0.37700
C1610       C  0.14241272  0.74622891  0.66864829     0.37700
C1611       C  0.08847389  0.72250673  0.62383759     0.36100
C1612       C  0.21708464  0.64931007  0.62345051     0.36100
N1613       N  0.06409384  0.73996600  0.61924914    -0.38700
N1614       N  0.24384299  0.63702697  0.61636688    -0.38700
N1615       N  0.13626606  0.77044273  0.68565845    -0.38200
N1616       N  0.15492307  0.57988043  0.61601000    -0.38200
C1617       C  0.99501729  0.65459021  0.62688482    -0.04800
C1618       C  0.96792684  0.66951152  0.60665950    -0.02000
C1619       C  0.94054143  0.68827561  0.62294002     0.03000
C1620       C  0.93986473  0.69201391  0.65974546    -0.04800
C1621       C  0.96759889  0.67681496  0.67977773    -0.01900
C1622       C  0.99401870  0.65728618  0.66341072     0.03000
C1623       C  0.96879807  0.66681823  0.56892853     0.37700
C1624       C  0.97011133  0.68087027  0.71741911     0.37700
C1625       C  0.02026807  0.63937226  0.68446845     0.36100
C1626       C  0.91443199  0.70542326  0.60132947     0.36100
N1627       N  0.04100975  0.62508928  0.70129485    -0.38700
N1628       N  0.89376363  0.71919203  0.58399494    -0.38700
N1629       N  0.97299346  0.68417771  0.74728132    -0.38200
N1630       N  0.96926665  0.66463352  0.53883544    -0.38200
C1631       C  0.12367678  0.89455604  0.75941026    -0.04800
C1632       C  0.12321687  0.86436360  0.78087717    -0.02000
C1633       C  0.14938871  0.83829752  0.77775911     0.03000
C1634       C  0.17802873  0.84311772  0.75486714    -0.04800
C1635       C  0.18024945  0.87538960  0.73614353    -0.01900
C1636       C  0.15270698  0.90014105  0.73751523     0.03000
C1637       C  0.09604771  0.86046892  0.80705734     0.37700
C1638       C  0.21057501  0.88367535  0.71482020     0.37700
C1639       C  0.15367948  0.93054281  0.71490209     0.36100
C1640       C  0.14697672  0.80704014  0.79906301     0.36100
N1641       N  0.15473095  0.95458297  0.69662335    -0.38700
N1642       N  0.14460359  0.78215287  0.81604172    -0.38700
N1643       N  0.23483940  0.89068702  0.69817483    -0.38200
N1644       N  0.07463437  0.85750777  0.82818866    -0.38200
C1645       C  0.99764558  0.89301065  0.74260308    -0.04800
C1646       C  0.96478844  0.90333459  0.75604682    -0.02000
C1647       C  0.93578807  0.88023438  0.75483391     0.03000
C1648       C  0.94007325  0.84456906  0.74445135    -0.04800
C1649       C  0.97277887  0.83461250  0.73015833    -0.01900
C1650       C  0.00047893  0.85906539  0.72752009     0.03000
C1651       C  0.96084986  0.93720672  0.77263802     0.37700
C1652       C  0.97788042  0.79955683  0.71655927     0.37700
C1653       C  0.03151559  0.84935595  0.70780944     0.36100
C1654       C  0.90155625  0.89407750  0.76387536     0.36100
N1655       N  0.05605773  0.84161329  0.69183623    -0.38700
N1656       N  0.87431173  0.90563170  0.77051382    -0.38700
N1657       N  0.98239319  0.77167053  0.70572397    -0.38200
N1658       N  0.95772684  0.96406311  0.78619783    -0.38200
C1659       C  0.05802867  0.35629489  0.52927133    -0.04800
C1660       C  0.06050036  0.32711579  0.50708561    -0.02000
C1661       C  0.06195041  0.33210156  0.47120090     0.03000
C1662       C  0.05977609  0.36631307  0.45744249    -0.04800
C1663       C  0.05531556  0.39538762  0.47938004    -0.01900
C1664       C  0.05481333  0.39037517  0.51571030     0.03000
C1665       C  0.06051276  0.29177943  0.52112082     0.37700
C1666       C  0.05086785  0.42995669  0.46455002     0.37700
C1667       C  0.05059161  0.41988340  0.53900637     0.36100
C1668       C  0.06466757  0.30175890  0.44837929     0.36100
N1669       N  0.04710039  0.44346469  0.55758558    -0.38700
N1670       N  0.06670596  0.27763966  0.43026481    -0.38700
N1671       N  0.04707312  0.45748627  0.45260414    -0.38200
N1672       N  0.06022458  0.26361137  0.53212130    -0.38200
C1673       C  0.12241332  0.31213353  0.62889159    -0.04800
C1674       C  0.14826960  0.29412070  0.60927027    -0.02000
C1675       C  0.17817278  0.27996524  0.62598197     0.03000
C1676       C  0.18194261  0.28260154  0.66269540    -0.04800
C1677       C  0.15592904  0.30120910  0.68189736    -0.01900
C1678       C  0.12759604  0.31712397  0.66478400     0.03000
C1679       C  0.14416881  0.28930551  0.57197130     0.37700
C1680       C  0.15710546  0.30424063  0.71963314     0.37700
C1681       C  0.10462472  0.34023303  0.68430373     0.36100
C1682       C  0.20472890  0.26248958  0.60513087     0.36100
N1683       N  0.08729936  0.35895786  0.70054111    -0.38700
N1684       N  0.22610363  0.24896135  0.58846686    -0.38700
N1685       N  0.15639342  0.30651993  0.74970239    -0.38200
N1686       N  0.14167633  0.28521740  0.54217730    -0.38200
C1687       C  0.99362184  0.31443778  0.62890221    -0.04800
C1688       C  0.97061251  0.29218260  0.61053744    -0.02000
C1689       C  0.94131485  0.27751596  0.62755972     0.03000
C1690       C  0.93532643  0.28431784  0.66339214    -0.04800
C1691       C  0.95840603  0.30742358  0.68118861    -0.01900
C1692       C  0.98569297  0.32405535  0.66323679     0.03000
C1693       C  0.97665826  0.28450401  0.57399297     0.37700
C1694       C  0.95572125  0.31382315  0.71833472     0.37700
C1695       C  0.00323883  0.35370268  0.67901243     0.36100
C1696       C  0.91839159  0.25440216  0.60821401     0.36100
N1697       N  0.01556562  0.37829744  0.69146901    -0.38700
N1698       N  0.90011502  0.23638014  0.59228193    -0.38700
N1699       N  0.95569967  0.31886960  0.74805708    -0.38200
N1700       N  0.98065888  0.27851922  0.54468927    -0.38200
C1701       C  0.18241619  0.13292012  0.75276188    -0.04800
C1702       C  0.18523420  0.09695160  0.76234620    -0.02000
C1703       C  0.15548809  0.07452842  0.76193605     0.03000
C1704       C  0.12239713  0.08674271  0.75021382    -0.04800
C1705       C  0.12027251  0.12221679  0.73861605    -0.01900
C1706       C  0.14954883  0.14487904  0.74035913     0.03000
C1707       C  0.21874836  0.08224800  0.77267216     0.37700
C1708       C  0.08809620  0.13614247  0.72379120     0.37700
C1709       C  0.14564466  0.18050942  0.72774608     0.36100
C1710       C  0.15916958  0.03903696  0.77480285     0.36100
N1711       N  0.14212677  0.20883964  0.71772684    -0.38700
N1712       N  0.16235356  0.01080249  0.78520655    -0.38700
N1713       N  0.06264478  0.14778398  0.71213938    -0.38200
N1714       N  0.24534814  0.06995457  0.78049592    -0.38200
C1715       C  0.99413998  0.08306184  0.75699497    -0.04800
C1716       C  0.96584004  0.07710324  0.73404692    -0.02000
C1717       C  0.93650492  0.10009002  0.73358978     0.03000
C1718       C  0.93567015  0.13058942  0.75497221    -0.04800
C1719       C  0.96391522  0.13595051  0.77838049    -0.01900
C1720       C  0.99225486  0.11205008  0.77993842     0.03000
C1721       C  0.96761842  0.04832266  0.70946347     0.37700
C1722       C  0.96381632  0.16555865  0.80198338     0.37700
C1723       C  0.01937035  0.11707271  0.80602437     0.36100
C1724       C  0.90764480  0.09225176  0.71031257     0.36100
N1725       N  0.04093610  0.12103003  0.82684106    -0.38700
N1726       N  0.88466894  0.08525919  0.69194696    -0.38700
N1727       N  0.96448320  0.18908396  0.82090651    -0.38200
N1728       N  0.96913850  0.02550649  0.68970019    -0.38200
C1729       C  0.39703565  0.10619134  0.29766566    -0.04800
C1730       C  0.37926835  0.07929098  0.31626825    -0.02000
C1731       C  0.39783719  0.05047649  0.32934357     0.03000
C1732       C  0.43396167  0.04739485  0.32333330    -0.04800
C1733       C  0.45219675  0.07429498  0.30606767    -0.01900
C1734       C  0.43381552  0.10359197  0.29305781     0.03000
C1735       C  0.34163372  0.07984488  0.32164082     0.37700
C1736       C  0.48957845  0.07101066  0.30015782     0.37700
C1737       C  0.45258190  0.12957612  0.27284565     0.36100
C1738       C  0.37962428  0.02365405  0.34918513     0.36100
N1739       N  0.46745298  0.15021545  0.25654809    -0.38700
N1740       N  0.36531682  0.00217226  0.36488072    -0.38700
N1741       N  0.51938571  0.06844625  0.29536076    -0.38200
N1742       N  0.31168128  0.07862689  0.32593850    -0.38200
C1743       C  0.43895284  0.91993627  0.31925640    -0.04800
C1744       C  0.41997711  0.89817497  0.34207495    -0.02000
C1745       C  0.40167976  0.86908323  0.32883105     0.03000
C1746       C  0.40413649  0.86024050  0.29311040    -0.04800
C1747       C  0.42505437  0.88066115  0.27078832    -0.01900
C1748       C  0.44150893  0.91108316  0.28357044     0.03000
C1749       C  0.41802293  0.90660600  0.37893559     0.37700
C1750       C  0.42884865  0.87084752  0.23449093     0.37700
C1751       C  0.46061272  0.93359147  0.25988949     0.36100
C1752       C  0.37926098  0.84905166  0.35179496     0.36100
N1753       N  0.47559978  0.95171210  0.24094081    -0.38700
N1754       N  0.36102421  0.83360341  0.37023105    -0.38700
N1755       N  0.43205818  0.86286389  0.20557413    -0.38200
N1756       N  0.41670029  0.91329114  0.40833887    -0.38200
C1757       C  0.29869321  0.10436986  0.14534958    -0.04800
C1758       C  0.32121601  0.10313668  0.11569878    -0.02000
C1759       C  0.31837917  0.07599652  0.09053707     0.03000
C1760       C  0.29293615  0.04956856  0.09419225    -0.04800
C1761       C  0.26955022  0.05151274  0.12286703    -0.01900
C1762       C  0.27261023  0.07826562  0.14832431     0.03000
C1763       C  0.34854370  0.12900379  0.11135846     0.37700
C1764       C  0.24202358  0.02563942  0.12626444     0.37700
C1765       C  0.24852681  0.07859026  0.17751500     0.36100
C1766       C  0.34315237  0.07424725  0.06191252     0.36100
N1767       N  0.22927442  0.07807097  0.20078444    -0.38700
N1768       N  0.36305744  0.07290009  0.03919698    -0.38700
N1769       N  0.22020946  0.00488169  0.12888285    -0.38200
N1770       N  0.37037438  0.14950784  0.10736001    -0.38200
C1771       C  0.30272600  0.92241820  0.09667130    -0.04800
C1772       C  0.31896800  0.92478357  0.13017148    -0.02000
C1773       C  0.31723777  0.89689210  0.15459403     0.03000
C1774       C  0.30135419  0.86468674  0.14569959    -0.04800
C1775       C  0.28676295  0.86158047  0.11158671    -0.01900
C1776       C  0.28682547  0.89025542  0.08775647     0.03000
C1777       C  0.33900353  0.95558507  0.13963627     0.37700
C1778       C  0.27077783  0.82898720  0.10081996     0.37700
C1779       C  0.26926658  0.88677680  0.05443893     0.36100
C1780       C  0.33346196  0.90113429  0.18859703     0.36100
N1781       N  0.25512209  0.88391736  0.02790855    -0.38700
N1782       N  0.34619964  0.90458226  0.21576279    -0.38700
N1783       N  0.25822810  0.80296904  0.09195269    -0.38200
N1784       N  0.35505450  0.97996696  0.14746614    -0.38200
C1785       C  0.67406636  0.05424993  0.68408745    -0.04800
C1786       C  0.68517027  0.08091569  0.66128183    -0.02000
C1787       C  0.70101046  0.11109517  0.67481107     0.03000
C1788       C  0.70720083  0.11413321  0.71086383    -0.04800
C1789       C  0.69474764  0.08837310  0.73387561    -0.01900
C1790       C  0.67769066  0.05863970  0.72055104     0.03000
C1791       C  0.68378903  0.07594341  0.62379026     0.37700
C1792       C  0.70024297  0.09214603  0.77109346     0.37700
C1793       C  0.66430702  0.03238179  0.74432535     0.36100
C1794       C  0.71379154  0.13763936  0.65124062     0.36100
N1795       N  0.65359902  0.01145397  0.76328587    -0.38700
N1796       N  0.72474787  0.15809347  0.63203557    -0.38700
N1797       N  0.70466686  0.09517406  0.80078065    -0.38200
N1798       N  0.68343766  0.07211006  0.59386314    -0.38200
C1799       C  0.68603134  0.92738905  0.67853036    -0.04800
C1800       C  0.66653121  0.89993153  0.69338745    -0.02000
C1801       C  0.68370507  0.86988802  0.70617034     0.03000
C1802       C  0.72077999  0.86787747  0.70560201    -0.04800
C1803       C  0.74011014  0.89590382  0.69029536    -0.01900
C1804       C  0.72258670  0.92481465  0.67599412     0.03000
C1805       C  0.62879612  0.90312155  0.69662060     0.37700
C1806       C  0.77813561  0.89568771  0.68827798     0.37700
C1807       C  0.74218060  0.95152876  0.65737749     0.36100
C1808       C  0.66291862  0.84167559  0.72056138     0.36100
N1809       N  0.75768620  0.97259535  0.64226145    -0.38700
N1810       N  0.64628395  0.81906595  0.73174325    -0.38700
N1811       N  0.80837119  0.89665087  0.68654542    -0.38200
N1812       N  0.59872059  0.90578868  0.69921198    -0.38200
C1813       C  0.81803201  0.05136641  0.90725044    -0.04800
C1814       C  0.78684369  0.07111297  0.90470634    -0.02000
C1815       C  0.78355958  0.09798981  0.87939520     0.03000
C1816       C  0.81146573  0.10576458  0.85633041    -0.04800
C1817       C  0.84320665  0.08695717  0.86006211    -0.01900
C1818       C  0.84656784  0.06034030  0.88559644     0.03000
C1819       C  0.75769010  0.06319046  0.92757464     0.37700
C1820       C  0.87302837  0.09570746  0.83851384     0.37700
C1821       C  0.88006061  0.04316199  0.89074489     0.36100
C1822       C  0.75060777  0.11639018  0.87602349     0.36100
N1823       N  0.90701685  0.03001966  0.89520680    -0.38700
N1824       N  0.72392753  0.13046855  0.87342594    -0.38700
N1825       N  0.89717206  0.10237730  0.82163570    -0.38200
N1826       N  0.73446349  0.05704085  0.94592660    -0.38200
C1827       C  0.82021378  0.92347219  0.90511506    -0.04800
C1828       C  0.84959489  0.91435000  0.88445305    -0.02000
C1829       C  0.84816294  0.88558612  0.86101338     0.03000
C1830       C  0.81664587  0.86691395  0.85598106    -0.04800
C1831       C  0.78822965  0.87451746  0.87863660    -0.01900
C1832       C  0.78988387  0.90268115  0.90268044     0.03000
C1833       C  0.88194731  0.93362453  0.88840696     0.37700
C1834       C  0.75777294  0.85224764  0.87901759     0.37700
C1835       C  0.75998364  0.91054909  0.92469138     0.36100
C1836       C  0.88025061  0.87218427  0.84589031     0.36100
N1837       N  0.73615340  0.91668011  0.94231966    -0.38700
N1838       N  0.90610796  0.86065869  0.83508302    -0.38700
N1839       N  0.73356631  0.83435359  0.88109674    -0.38200
N1840       N  0.90795722  0.94871151  0.89157206    -0.38200
C1841       C  0.38463011  0.36029545  0.06984585    -0.04800
C1842       C  0.39143221  0.32491041  0.07595378    -0.02000
C1843       C  0.37191086  0.30674340  0.10076453     0.03000
C1844       C  0.35047839  0.32534169  0.12487227    -0.04800
C1845       C  0.34660173  0.36205992  0.12098517    -0.01900
C1846       C  0.36272095  0.37924002  0.09261542     0.03000
C1847       C  0.42019087  0.30765398  0.05805837     0.37700
C1848       C  0.32439257  0.38190203  0.14449008     0.37700
C1849       C  0.35647176  0.41614070  0.08646153     0.36100
C1850       C  0.37317137  0.26882644  0.09943154     0.36100
N1851       N  0.35166107  0.44559477  0.08143936    -0.38700
N1852       N  0.37382671  0.23868733  0.09698113    -0.38700
N1853       N  0.30673113  0.39790444  0.16315815    -0.38200
N1854       N  0.44396047  0.29411631  0.04503045    -0.38200
C1855       C  0.37782995  0.35853123  0.94295662    -0.04800
C1856       C  0.36435321  0.38025789  0.91622272    -0.02000
C1857       C  0.34915070  0.36543655  0.88602895     0.03000
C1858       C  0.34748742  0.32868268  0.88229397    -0.04800
C1859       C  0.36010495  0.30712775  0.91003495    -0.01900
C1860       C  0.37570533  0.32202460  0.93950660     0.03000
C1861       C  0.36533428  0.41792532  0.92013847     0.37700
C1862       C  0.35838310  0.26905865  0.90883434     0.37700
C1863       C  0.39114559  0.29891666  0.96536514     0.36100
C1864       C  0.33441953  0.38814770  0.85947339     0.36100
N1865       N  0.40298846  0.27888971  0.98463998    -0.38700
N1866       N  0.32291194  0.40631466  0.83820113    -0.38700
N1867       N  0.35701190  0.23883759  0.90857296    -0.38200
N1868       N  0.36635313  0.44795348  0.92345864    -0.38200
C1869       C  0.15238632  0.21796011  0.06567988    -0.04800
C1870       C  0.14628195  0.24204858  0.09289259    -0.02000
C1871       C  0.17029410  0.24506561  0.12094753     0.03000
C1872       C  0.20141378  0.22446574  0.12196140    -0.04800
C1873       C  0.20682785  0.19960715  0.09504810    -0.01900
C1874       C  0.18213118  0.19582753  0.06778411     0.03000
C1875       C  0.11610886  0.26509810  0.09128293     0.37700
C1876       C  0.23773120  0.17751865  0.09493181     0.37700
C1877       C  0.18717914  0.16852108  0.04191678     0.36100
C1878       C  0.16308470  0.27037845  0.14820832     0.36100
N1879       N  0.19116200  0.14662395  0.02146251    -0.38700
N1880       N  0.15695013  0.29031175  0.17007774    -0.38700
N1881       N  0.26236162  0.15989669  0.09380027    -0.38200
N1882       N  0.09205732  0.28352657  0.09000239    -0.38200
C1883       C  0.15871464  0.23131904  0.93953390    -0.04800
C1884       C  0.15126719  0.21495595  0.90735063    -0.02000
C1885       C  0.17554752  0.21641670  0.87930173     0.03000
C1886       C  0.20851952  0.23321915  0.88309619    -0.04800
C1887       C  0.21627827  0.24899173  0.91553896    -0.01900
C1888       C  0.19130120  0.24910970  0.94293397     0.03000
C1889       C  0.11944246  0.19477929  0.90346069     0.37700
C1890       C  0.24999899  0.26538031  0.92116800     0.37700
C1891       C  0.19927955  0.26844196  0.97456062     0.36100
C1892       C  0.16696571  0.19875656  0.84698305     0.36100
N1893       N  0.20568472  0.28377403  0.99977558    -0.38700
N1894       N  0.15974644  0.18457421  0.82135159    -0.38700
N1895       N  0.27681876  0.27835775  0.92634715    -0.38200
N1896       N  0.09421558  0.17842332  0.90025387    -0.38200
C1897       C  0.72101609  0.61531493  0.06329143    -0.04800
C1898       C  0.70122614  0.63632169  0.08609603    -0.02000
C1899       C  0.71659311  0.64872311  0.11712625     0.03000
C1900       C  0.75208667  0.64113002  0.12460764    -0.04800
C1901       C  0.77068084  0.61752135  0.10331701    -0.01900
C1902       C  0.75466366  0.60373831  0.07328551     0.03000
C1903       C  0.66523217  0.64501735  0.07763666     0.37700
C1904       C  0.80654295  0.60820896  0.11134888     0.37700
C1905       C  0.77223612  0.57670028  0.05325337     0.36100
C1906       C  0.69582773  0.66877474  0.14173673     0.36100
N1907       N  0.78591460  0.55469687  0.03759975    -0.38700
N1908       N  0.67915885  0.68422826  0.16170323    -0.38700
N1909       N  0.83535091  0.60053258  0.11677415    -0.38200
N1910       N  0.63643027  0.65169189  0.07094012    -0.38200
C1911       C  0.76889834  0.64435945  0.87672899    -0.04800
C1912       C  0.78374561  0.64804357  0.91035996    -0.02000
C1913       C  0.76817596  0.63147190  0.93921911     0.03000
C1914       C  0.73378968  0.61783206  0.93649026    -0.04800
C1915       C  0.71770784  0.61717157  0.90332186    -0.01900
C1916       C  0.73697562  0.62617916  0.87336680     0.03000
C1917       C  0.81399486  0.67014981  0.91620593     0.37700
C1918       C  0.68017186  0.61280561  0.90018582     0.37700
C1919       C  0.72298594  0.61764808  0.83938367     0.36100
C1920       C  0.78804587  0.62880483  0.97136761     0.36100
N1921       N  0.71208008  0.60924606  0.81257372    -0.38700
N1922       N  0.80457903  0.62678244  0.99657362    -0.38700
N1923       N  0.65005490  0.61109847  0.89740521    -0.38200
N1924       N  0.83759414  0.68823587  0.92173792    -0.38200
C1925       C  0.96064103  0.73385236  0.06360793    -0.04800
C1926       C  0.96419009  0.75789906  0.09133391    -0.02000
C1927       C  0.93916870  0.75892445  0.11876322     0.03000
C1928       C  0.90934829  0.73685621  0.11831358    -0.04800
C1929       C  0.90552088  0.71327886  0.09030882    -0.01900
C1930       C  0.93123377  0.71116895  0.06372840     0.03000
C1931       C  0.99205626  0.78348463  0.09039409     0.37700
C1932       C  0.87494547  0.69103354  0.08874671     0.37700
C1933       C  0.92733599  0.68519117  0.03644329     0.36100
C1934       C  0.94328815  0.78424404  0.14651646     0.36100
N1935       N  0.92409049  0.66439837  0.01478026    -0.38700
N1936       N  0.94692189  0.80471096  0.16838450    -0.38700
N1937       N  0.85021818  0.67374488  0.08727458    -0.38200
N1938       N  0.01384964  0.80439070  0.08950824    -0.38200
C1939       C  0.96315559  0.74408923  0.93699326    -0.04800
C1940       C  0.96905935  0.72085724  0.90898459    -0.02000
C1941       C  0.94537613  0.71940992  0.88047830     0.03000
C1942       C  0.91503881  0.74114495  0.87948892    -0.04800
C1943       C  0.90975704  0.76505314  0.90725381    -0.01900
C1944       C  0.93371397  0.76673814  0.93541893     0.03000
C1945       C  0.99860765  0.69699211  0.91022961     0.37700
C1946       C  0.87991561  0.78861032  0.90698847     0.37700
C1947       C  0.92816257  0.79246286  0.96273948     0.36100
C1948       C  0.95189487  0.69422864  0.85294273     0.36100
N1949       N  0.92365263  0.81298448  0.98446500    -0.38700
N1950       N  0.95764417  0.67407994  0.83117059    -0.38700
N1951       N  0.85612512  0.80740493  0.90739561    -0.38200
N1952       N  0.02211504  0.67787090  0.91122925    -0.38200
C1953       C  0.51980224  0.98397578  0.60717764    -0.04800
C1954       C  0.53881309  0.95220202  0.60523004    -0.02000
C1955       C  0.57563518  0.95282304  0.60722007     0.03000
C1956       C  0.59301638  0.98526856  0.61130535    -0.04800
C1957       C  0.57471328  0.01590443  0.60151512    -0.01900
C1958       C  0.53797701  0.01525207  0.59926949     0.03000
C1959       C  0.52128737  0.91878521  0.60257118     0.37700
C1960       C  0.59292299  0.04850566  0.59524603     0.37700
C1961       C  0.51936372  0.04734485  0.59096109     0.36100
C1962       C  0.59484816  0.91999442  0.60678503     0.36100
N1963       N  0.50528160  0.07339325  0.58455843    -0.38700
N1964       N  0.60984306  0.89365050  0.60654774    -0.38700
N1965       N  0.60631295  0.07507124  0.59003350    -0.38200
N1966       N  0.50868841  0.89143345  0.60024952    -0.38200
C1967       C  0.43579103  0.05319077  0.67441576    -0.04800
C1968       C  0.43702338  0.05736796  0.71090257    -0.02000
C1969       C  0.41967258  0.08567869  0.72664333     0.03000
C1970       C  0.40586282  0.11271624  0.70576597    -0.04800
C1971       C  0.40807837  0.11039210  0.66903752    -0.01900
C1972       C  0.42238416  0.08025357  0.65336437     0.03000
C1973       C  0.45760365  0.03349780  0.73204675     0.37700
C1974       C  0.39269303  0.13746797  0.64735398     0.37700
C1975       C  0.42194460  0.07639076  0.61575188     0.36100
C1976       C  0.41420134  0.08561521  0.76401480     0.36100
N1977       N  0.42164217  0.07314346  0.58575584    -0.38700
N1978       N  0.40963779  0.08494068  0.79381682    -0.38700
N1979       N  0.38000577  0.15870365  0.62993121    -0.38200
N1980       N  0.47456289  0.01488688  0.74887134    -0.38200
C1981       C  0.42403157  0.92554426  0.67234218    -0.04800
C1982       C  0.40993127  0.92480360  0.70663200    -0.02000
C1983       C  0.39653238  0.89357430  0.72060733     0.03000
C1984       C  0.39730328  0.86233288  0.70112997    -0.04800
C1985       C  0.40956193  0.86329749  0.66643750    -0.01900
C1986       C  0.42206940  0.89482208  0.65184336     0.03000
C1987       C  0.40632543  0.95625895  0.72744700     0.37700
C1988       C  0.40573560  0.83301433  0.64430175     0.37700
C1989       C  0.42837198  0.89655499  0.61455230     0.36100
C1990       C  0.37890636  0.89463680  0.75413010     0.36100
N1991       N  0.43246730  0.89787100  0.58467630    -0.38700
N1992       N  0.36374018  0.89679253  0.78012165    -0.38700
N1993       N  0.40252819  0.80958304  0.62562975    -0.38200
N1994       N  0.40163005  0.98062153  0.74470216    -0.38200
C1995       C  0.30382837  0.05314308  0.90716244    -0.04800
C1996       C  0.27395526  0.06759193  0.89063933    -0.02000
C1997       C  0.27719376  0.09617537  0.86733015     0.03000
C1998       C  0.31045771  0.10961177  0.85864991    -0.04800
C1999       C  0.34020834  0.09616621  0.87616488    -0.01900
C2000       C  0.33684316  0.06840687  0.90055250     0.03000
C2001       C  0.23965726  0.05321695  0.89771354     0.37700
C2002       C  0.37444157  0.11052324  0.86892090     0.37700
C2003       C  0.36749230  0.05532035  0.91869814     0.36100
C2004       C  0.24611228  0.11301630  0.85341754     0.36100
N2005       N  0.39194921  0.04516488  0.93340447    -0.38700
N2006       N  0.22156087  0.12708128  0.84256496    -0.38700
N2007       N  0.40202908  0.12162497  0.86352916    -0.38200
N2008       N  0.21208670  0.04202135  0.90313760    -0.38200
C2009       C  0.29587888  0.92522196  0.90054961    -0.04800
C2010       C  0.31569500  0.89483528  0.90789606    -0.02000
C2011       C  0.31649363  0.86614826  0.88417502     0.03000
C2012       C  0.29889172  0.86764788  0.85121679    -0.04800
C2013       C  0.27854740  0.89796958  0.84433178    -0.01900
C2014       C  0.27654613  0.92591074  0.86881517     0.03000
C2015       C  0.33673385  0.89341384  0.93936267     0.37700
C2016       C  0.25806996  0.90029783  0.81263072     0.37700
C2017       C  0.25317511  0.95500822  0.86151456     0.36100
C2018       C  0.33607267  0.83519798  0.89429518     0.36100
N2019       N  0.23431046  0.97792208  0.85537078    -0.38700
N2020       N  0.35160883  0.81058749  0.90272796    -0.38700
N2021       N  0.24146051  0.90289618  0.78755715    -0.38200
N2022       N  0.35371904  0.89215382  0.96432552    -0.38200
C2023       C  0.59847275  0.98411583  0.38962055    -0.04800
C2024       C  0.58078510  0.01614396  0.39570678    -0.02000
C2025       C  0.54394220  0.01688726  0.39476524     0.03000
C2026       C  0.52543642  0.98527018  0.38931478    -0.04800
C2027       C  0.54305034  0.95362244  0.39677804    -0.01900
C2028       C  0.57985720  0.95287086  0.39621307     0.03000
C2029       C  0.60006252  0.04836700  0.40102146     0.37700
C2030       C  0.52366616  0.92163789  0.40297442     0.37700
C2031       C  0.59767657  0.91980637  0.40122280     0.36100
C2032       C  0.52588364  0.05020550  0.39749814     0.36100
N2033       N  0.61030500  0.89265492  0.40564477    -0.38700
N2034       N  0.51195570  0.07704158  0.39957625    -0.38700
N2035       N  0.50829540  0.89606646  0.40776882    -0.38200
N2036       N  0.61555122  0.07399224  0.40514912    -0.38200
C2037       C  0.68913247  0.04765557  0.32460690    -0.04800
C2038       C  0.67031270  0.07194461  0.30422575    -0.02000
C2039       C  0.68756492  0.10124817  0.28993440     0.03000
C2040       C  0.72347244  0.10703809  0.29730617    -0.04800
C2041       C  0.74174364  0.08260633  0.31875565    -0.01900
C2042       C  0.72466838  0.05301116  0.33185588     0.03000
C2043       C  0.63361234  0.06575939  0.29671728     0.37700
C2044       C  0.77845624  0.08678154  0.32741969     0.37700
C2045       C  0.74385100  0.02759179  0.35276107     0.36100
C2046       C  0.66878337  0.12397978  0.26606244     0.36100
N2047       N  0.75896154  0.00711940  0.36917099    -0.38700
N2048       N  0.65365353  0.14185611  0.24688885    -0.38700
N2049       N  0.80782544  0.08845629  0.33452509    -0.38200
N2050       N  0.60435161  0.06050117  0.29099450    -0.38200
C2051       C  0.68304981  0.92085139  0.31504917    -0.04800
C2052       C  0.69172795  0.91978253  0.27901188    -0.02000
C2053       C  0.70401505  0.88839551  0.26410388     0.03000
C2054       C  0.70627199  0.85806571  0.28462878    -0.04800
C2055       C  0.69203308  0.85809725  0.31829046    -0.01900
C2056       C  0.68463119  0.88981086  0.33480282     0.03000
C2057       C  0.68896980  0.95074610  0.25731879     0.37700
C2058       C  0.68011262  0.82584397  0.33369271     0.37700
C2059       C  0.68445220  0.89087200  0.37254900     0.36100
C2060       C  0.71082128  0.88610461  0.22699013     0.36100
N2061       N  0.68608988  0.89186173  0.40266281    -0.38700
N2062       N  0.71517501  0.88398971  0.19720388    -0.38700
N2063       N  0.66803071  0.80036252  0.34441934    -0.38200
N2064       N  0.68718360  0.97550527  0.24005634    -0.38200
C2065       C  0.81765525  0.04863037  0.09697421    -0.04800
C2066       C  0.79852618  0.07926399  0.08918656    -0.02000
C2067       C  0.79577082  0.10682480  0.11400137     0.03000
C2068       C  0.81154532  0.10410949  0.14782548    -0.04800
C2069       C  0.82899248  0.07229985  0.15594963    -0.01900
C2070       C  0.83424191  0.04635472  0.13008295     0.03000
C2071       C  0.78076282  0.08226278  0.05585588     0.37700
C2072       C  0.84128854  0.06525314  0.19107393     0.37700
C2073       C  0.85826103  0.01770309  0.13731585     0.36100
C2074       C  0.77444801  0.13692748  0.10485215     0.36100
N2075       N  0.87764543  0.99503652  0.14278128    -0.38700
N2076       N  0.75720561  0.16064365  0.09717708    -0.38700
N2077       N  0.85098162  0.05920081  0.21903627    -0.38200
N2078       N  0.76667809  0.08476408  0.02924335    -0.38200
C2079       C  0.80526621  0.92213016  0.09654165    -0.04800
C2080       C  0.81691369  0.88878136  0.08523684    -0.02000
C2081       C  0.81916744  0.86025703  0.10903078     0.03000
C2082       C  0.80900595  0.86403499  0.14458835    -0.04800
C2083       C  0.79830222  0.89759012  0.15599217    -0.01900
C2084       C  0.79430056  0.92542139  0.13205369     0.03000
C2085       C  0.82694662  0.88339631  0.04916634     0.37700
C2086       C  0.79313722  0.90473843  0.19284932     0.37700
C2087       C  0.77767214  0.95727482  0.14466313     0.36100
C2088       C  0.83526941  0.82789716  0.09735716     0.36100
N2089       N  0.76455852  0.98254818  0.15501267    -0.38700
N2090       N  0.84865215  0.80236606  0.08805234    -0.38700
N2091       N  0.78992660  0.91105995  0.22219675    -0.38200
N2092       N  0.83464294  0.87871713  0.02034589    -0.38200
C2093       C  0.66134676  0.52752662  0.99407228    -0.04800
C2094       C  0.66042138  0.50755514  0.96306028    -0.02000
C2095       C  0.66292205  0.47088579  0.96501524     0.03000
C2096       C  0.66945609  0.45471346  0.99772771    -0.04800
C2097       C  0.66023504  0.47362739  0.02811640    -0.01900
C2098       C  0.65426384  0.50991446  0.02581476     0.03000
C2099       C  0.65832318  0.52391523  0.92905154     0.37700
C2100       C  0.65804348  0.45662684  0.06183774     0.37700
C2101       C  0.64221765  0.52896915  0.05629534     0.36100
C2102       C  0.65969912  0.45045714  0.93323968     0.36100
N2103       N  0.63246663  0.54402778  0.08062080    -0.38700
N2104       N  0.65698122  0.43447586  0.90776032    -0.38700
N2105       N  0.65649397  0.44334097  0.08890469    -0.38200
N2106       N  0.65676196  0.53536118  0.90118116    -0.38200
C2107       C  0.73462808  0.36375476  0.06452615    -0.04800
C2108       C  0.75663795  0.38130114  0.08824545    -0.02000
C2109       C  0.77091615  0.36324360  0.11716373     0.03000
C2110       C  0.76362166  0.32724869  0.12221370    -0.04800
C2111       C  0.74091389  0.31009019  0.09832928    -0.01900
C2112       C  0.72611855  0.32847555  0.07019701     0.03000
C2113       C  0.76595931  0.41747116  0.08195361     0.37700
C2114       C  0.73256851  0.27326594  0.10175322     0.37700
C2115       C  0.70180558  0.31090923  0.04690059     0.36100
C2116       C  0.79422260  0.38153730  0.14075949     0.36100
N2117       N  0.68239259  0.29679083  0.02855740    -0.38700
N2118       N  0.81260757  0.39615790  0.15975959    -0.38700
N2119       N  0.72583439  0.24384336  0.10306436    -0.38200
N2120       N  0.77354743  0.44628763  0.07690292    -0.38200
C2121       C  0.73599128  0.36333694  0.93757040    -0.04800
C2122       C  0.71584452  0.33652474  0.92266150    -0.02000
C2123       C  0.72755578  0.31991055  0.89216918     0.03000
C2124       C  0.75950035  0.33005373  0.87666246    -0.04800
C2125       C  0.77736135  0.35962138  0.88934356    -0.01900
C2126       C  0.76616637  0.37566448  0.92045446     0.03000
C2127       C  0.68269403  0.32664941  0.93827654     0.37700
C2128       C  0.80579732  0.37469536  0.86949839     0.37700
C2129       C  0.78561319  0.40475330  0.93491691     0.36100
C2130       C  0.70464942  0.29564466  0.87432533     0.36100
N2131       N  0.80112899  0.42790878  0.94656107    -0.38700
N2132       N  0.68543554  0.27763697  0.85956398    -0.38700
N2133       N  0.82755627  0.38770073  0.85308440    -0.38200
N2134       N  0.65613697  0.31900611  0.95057994    -0.38200
C2135       C  0.96262277  0.23321069  0.06030704    -0.04800
C2136       C  0.97267617  0.21935539  0.09303351    -0.02000
C2137       C  0.94859545  0.21852733  0.12128864     0.03000
C2138       C  0.91395562  0.23203968  0.11773077    -0.04800
C2139       C  0.90418301  0.24648960  0.08519947    -0.01900
C2140       C  0.92855483  0.24832470  0.05738923     0.03000
C2141       C  0.00767025  0.20528511  0.09786857     0.37700
C2142       C  0.86883739  0.25953053  0.07987214     0.37700
C2143       C  0.91857787  0.26736391  0.02612334     0.36100
C2144       C  0.95926937  0.20157341  0.15343097     0.36100
N2145       N  0.91055016  0.28266621  0.00132546    -0.38700
N2146       N  0.96828760  0.18778907  0.17875016    -0.38700
N2147       N  0.84057020  0.26952852  0.07529196    -0.38200
N2148       N  0.03563745  0.19430660  0.10203665    -0.38200
C2149       C  0.96499722  0.21967089  0.93403793    -0.04800
C2150       C  0.93633446  0.19634857  0.93171212    -0.02000
C2151       C  0.91016836  0.20066089  0.90577670     0.03000
C2152       C  0.91294292  0.22736022  0.88038984    -0.04800
C2153       C  0.94356429  0.24873740  0.88101324    -0.01900
C2154       C  0.96867430  0.24550826  0.90813820     0.03000
C2155       C  0.93436502  0.16688981  0.95544691     0.37700
C2156       C  0.94998788  0.27420665  0.85378037     0.37700
C2157       C  0.99770750  0.26980689  0.91017472     0.36100
C2158       C  0.88104020  0.17654096  0.90468664     0.36100
N2159       N  0.02089227  0.28911392  0.91207227    -0.38700
N2160       N  0.85778898  0.15726810  0.90423074    -0.38700
N2161       N  0.95615688  0.29425496  0.83206087    -0.38200
N2162       N  0.93288068  0.14301666  0.97391103    -0.38200
C2163       C  0.44958021  0.44743261  0.00150552    -0.04800
C2164       C  0.45497079  0.46755203  0.03198737    -0.02000
C2165       C  0.45114279  0.50403774  0.03001442     0.03000
C2166       C  0.44037539  0.51922951  0.99815449    -0.04800
C2167       C  0.44770938  0.50070744  0.96710685    -0.01900
C2168       C  0.45323249  0.46440263  0.96893868     0.03000
C2169       C  0.46171415  0.45110312  0.06541388     0.37700
C2170       C  0.44821449  0.51819758  0.93359422     0.37700
C2171       C  0.45996633  0.44454683  0.93740256     0.36100
C2172       C  0.45677651  0.52556464  0.06063576     0.36100
N2173       N  0.46522388  0.42867450  0.91224168    -0.38700
N2174       N  0.46147774  0.54292479  0.08489081    -0.38700
N2175       N  0.44881759  0.53208774  0.90679473    -0.38200
N2176       N  0.46682276  0.43811691  0.09220436    -0.38200
C2177       C  0.36432787  0.59903638  0.06291531    -0.04800
C2178       C  0.33485607  0.58867750  0.08237054    -0.02000
C2179       C  0.32475949  0.60815923  0.11200455     0.03000
C2180       C  0.34331324  0.63878571  0.12099956    -0.04800
C2181       C  0.37217111  0.64936873  0.10048351    -0.01900
C2182       C  0.38391065  0.62828552  0.07307107     0.03000
C2183       C  0.31504614  0.55819014  0.07189844     0.37700
C2184       C  0.38927220  0.68259586  0.10610912     0.37700
C2185       C  0.41664726  0.63636066  0.05552384     0.36100
C2186       C  0.29386475  0.59821096  0.13156856     0.36100
N2187       N  0.44306075  0.64221818  0.04198436    -0.38700
N2188       N  0.26903680  0.59040181  0.14696498    -0.38700
N2189       N  0.40290654  0.70937542  0.10869420    -0.38200
N2190       N  0.29916127  0.53382280  0.06373098    -0.38200
C2191       C  0.36692063  0.60634579  0.93707670    -0.04800
C2192       C  0.34962268  0.58866659  0.90994773    -0.02000
C2193       C  0.33741423  0.60730726  0.88059494     0.03000
C2194       C  0.34372757  0.64377589  0.87766193    -0.04800
C2195       C  0.36218560  0.66102163  0.90486771    -0.01900
C2196       C  0.37307693  0.64246099  0.93451770     0.03000
C2197       C  0.34316208  0.55146030  0.91295816     0.37700
C2198       C  0.37077795  0.69794409  0.90295393     0.37700
C2199       C  0.39096592  0.66093595  0.96236380     0.36100
C2200       C  0.31756419  0.58876117  0.85420660     0.36100
N2201       N  0.40489700  0.67669092  0.98400237    -0.38700
N2202       N  0.30177750  0.57365061  0.83335548    -0.38700
N2203       N  0.37774790  0.72734319  0.90258596    -0.38200
N2204       N  0.33795337  0.52180357  0.91545191    -0.38200
C2205       C  0.20158527  0.72753997  0.12223604    -0.04800
C2206       C  0.16706941  0.74139110  0.12494984    -0.02000
C2207       C  0.14448315  0.74259088  0.09550666     0.03000
C2208       C  0.15453846  0.72739445  0.06334157    -0.04800
C2209       C  0.18756940  0.71001245  0.06193032    -0.01900
C2210       C  0.21109047  0.71093735  0.09062723     0.03000
C2211       C  0.15421628  0.75462898  0.15801974     0.37700
C2212       C  0.19732108  0.68997863  0.03125982     0.37700
C2213       C  0.24465448  0.69324648  0.08792147     0.36100
C2214       C  0.11157300  0.76127366  0.09824036     0.36100
N2215       N  0.27136788  0.67908137  0.08559997    -0.38700
N2216       N  0.08550958  0.77653541  0.10067892    -0.38700
N2217       N  0.20517926  0.67386524  0.00692833    -0.38200
N2218       N  0.14327556  0.76463251  0.18434429    -0.38200
C2219       C  0.15137437  0.74134947  0.93572518    -0.04800
C2220       C  0.17794828  0.76680061  0.93221931    -0.02000
C2221       C  0.20145905  0.76610613  0.90351106     0.03000
C2222       C  0.19811827  0.74067247  0.87674805    -0.04800
C2223       C  0.17016258  0.71627856  0.87953111    -0.01900
C2224       C  0.14763843  0.71618054  0.90907073     0.03000
C2225       C  0.18082788  0.79425971  0.95817020     0.37700
C2226       C  0.16495403  0.69007862  0.85277275     0.37700
C2227       C  0.12211486  0.68850905  0.91317589     0.36100
C2228       C  0.22889584  0.79209883  0.90172954     0.36100
N2229       N  0.10213432  0.66611513  0.91664981    -0.38700
N2230       N  0.25078485  0.81289935  0.90098699    -0.38700
N2231       N  0.15997973  0.66914211  0.83160482    -0.38200
N2232       N  0.18291480  0.81624681  0.97878239    -0.38200
loop_ 
_geom_bond_atom_site_label_1 
_geom_bond_atom_site_label_2 
_geom_bond_distance 
_geom_bond_site_symmetry_2 
_ccdc_geom_bond_type 
C1            N2   1.368       .  A
C1            N6   1.356       .  A
C1         C2219   1.508       .  S
N2            C3   1.372   1_556  A
C3            N4   1.373       .  A
C3           C51   1.511       .  S
N4            C5   1.374       .  A
C5            N6   1.358   1_554  A
C5         C2208   1.521       .  S
C7            N8   1.351   1_554  A
C7           N12   1.351       .  A
C7         C2177   1.464       .  S
N8            C9   1.353       .  A
C9           N10   1.356       .  A
C9         C2191   1.471       .  S
N10          C11   1.359       .  A
C11          N12   1.358   1_556  A
C11        C2166   1.490       .  S
C13          N14   1.371   1_655  A
C13          N18   1.352   1_554  A
C13        C2135   1.517       .  S
N14          C15   1.374   1_554  A
C15          N16   1.373       .  A
C15          C65   1.509       .  S
N16          C17   1.371   1_455  A
C17          N18   1.350       .  A
C17        C2149   1.503       .  S
C19          N20   1.349       .  A
C19          N24   1.349   1_556  A
C19        C2121   1.464       .  S
N20          C21   1.356       .  A
C21          N22   1.365   1_556  A
C21        C2096   1.500       .  S
N22          C23   1.361       .  A
C23          N24   1.354       .  A
C23        C2107   1.478       .  S
C25          N26   1.372       .  A
C25          N30   1.349       .  A
C25        C2079   1.524       .  S
N26          C27   1.377       .  A
C27          N28   1.375   1_565  A
C27          C77   1.508   1_554  S
N28          C29   1.368       .  A
C29          N30   1.346   1_545  A
C29        C2065   1.513       .  S
C31          N32   1.351       .  A
C31          N36   1.349   1_545  A
C31        C2037   1.467       .  S
N32          C33   1.358   1_545  A
C33          N34   1.361       .  A
C33        C2023   1.496       .  S
N34          C35   1.360       .  A
C35          N36   1.350       .  A
C35        C2051   1.480       .  S
C37          N38   1.368       .  A
C37          N42   1.354   1_545  A
C37        C1995   1.503       .  S
N38          C39   1.373   1_545  A
C39          N40   1.378       .  A
C39          C87   1.521   1_556  S
N40          C41   1.378       .  A
C41          N42   1.358       .  A
C41        C2009   1.524       .  S
C43          N44   1.355       .  A
C43          N48   1.363       .  A
C43        C1981   1.499       .  S
N44          C45   1.352   1_565  A
C45          N46   1.349       .  A
C45        C1967   1.473       .  S
N46          C47   1.358   1_545  A
C47          N48   1.364       .  A
C47        C1953   1.498       .  S
C49          N50   1.374   1_655  A
C49          N54   1.352       .  A
C49        C1925   1.508       .  S
N50          C51   1.377       .  A
C51          N52   1.372   1_554  A
N52          C53   1.367   1_455  A
C53          N54   1.351   1_556  A
C53        C1939   1.505       .  S
C55          N56   1.349       .  A
C55          N60   1.353   1_554  A
C55        C1897   1.473       .  S
N56          C57   1.358   1_554  A
C57          N58   1.363       .  A
C57        C2093   1.499       .  S
N58          C59   1.362       .  A
C59          N60   1.357       .  A
C59        C1914   1.495       .  S
C61          N62   1.352   1_556  A
C61          N66   1.374       .  A
C61        C1883   1.516       .  S
N62          C63   1.350       .  A
C63          N64   1.367       .  A
C63        C1869   1.501       .  S
N64          C65   1.371   1_554  A
C65          N66   1.376       .  A
C67          N68   1.352   1_556  A
C67          N72   1.353       .  A
C67        C1855   1.481       .  S
N68          C69   1.353       .  A
C69          N70   1.352       .  A
C69        C1841   1.466       .  S
N70          C71   1.359       .  A
C71          N72   1.360   1_554  A
C71        C2163   1.490       .  S
C73          N74   1.356       .  A
C73          N78   1.371       .  A
C73        C1827   1.504       .  S
N74          C75   1.357   1_565  A
C75          N76   1.368       .  A
C75        C1813   1.500       .  S
N76          C77   1.371   1_545  A
C77          N78   1.372       .  A
C79          N80   1.357       .  A
C79          N84   1.352   1_545  A
C79        C1785   1.476       .  S
N80          C81   1.361   1_545  A
C81          N82   1.356       .  A
C81        C1956   1.495       .  S
N82          C83   1.351       .  A
C83          N84   1.352       .  A
C83        C1799   1.470       .  S
C85          N86   1.368       .  A
C85          N90   1.350   1_545  A
C85        C1760   1.508       .  S
N86          C87   1.375   1_545  A
C87          N88   1.381       .  A
N88          C89   1.379       .  A
C89          N90   1.353       .  A
C89        C1771   1.528       .  S
C91          N92   1.356       .  A
C91          N96   1.352       .  A
C91        C1743   1.481       .  S
N92          C93   1.363       .  A
C93          N94   1.357   1_565  A
C93        C2026   1.495       .  S
N94          C95   1.352       .  A
C95          N96   1.355   1_545  A
C95        C1732   1.470       .  S
C97          N98   1.366       .  A
C97         N102   1.352       .  A
C97        C1715   1.506   1_455  S
N98          C99   1.370       .  A
C99         N100   1.376       .  A
C99         C111   1.506   1_545  S
N100        C101   1.374       .  A
C101        N102   1.353       .  A
C101       C1704   1.529       .  S
C103        N104   1.360       .  A
C103        N108   1.350       .  A
C103       C1687   1.478   1_455  S
N104        C105   1.361       .  A
C105        N106   1.352       .  A
C105       C1673   1.487       .  S
N106        C107   1.355       .  A
C107        N108   1.352       .  A
C107       C1659   1.450       .  S
C109        N110   1.368       .  A
C109        N114   1.349       .  A
C109       C1631   1.496       .  S
N110        C111   1.371       .  A
C111        N112   1.375       .  A
N112        C113   1.371       .  A
C113        N114   1.349       .  A
C113       C1645   1.514   1_455  S
C115        N116   1.353       .  A
C115        N120   1.348       .  A
C115       C1617   1.476   1_455  S
N116        C117   1.361       .  A
C117        N118   1.366       .  A
C117       C1589   1.497       .  S
N118        C119   1.361       .  A
C119        N120   1.348       .  A
C119       C1603   1.486       .  S
C121        N122   1.366       .  A
C121        N126   1.355       .  A
C121       C1575   1.501       .  S
N122        C123   1.371       .  A
C123        N124   1.376       .  A
C123        C135   1.514   1_565  S
N124        C125   1.376       .  A
C125        N126   1.360       .  A
C125       C1564   1.521   1_455  S
C127        N128   1.356       .  A
C127        N132   1.356       .  A
C127       C1547   1.478       .  S
N128        C129   1.360       .  A
C129        N130   1.357       .  A
C129       C1592   1.497       .  S
N130        C131   1.353       .  A
C131        N132   1.355       .  A
C131       C1536   1.469   1_455  S
C133        N134   1.373       .  A
C133        N138   1.350       .  A
C133       C1519   1.508   1_455  S
N134        C135   1.378       .  A
C135        N136   1.377       .  A
N136        C137   1.370       .  A
C137        N138   1.348       .  A
C137       C1508   1.507       .  S
C139        N140   1.350       .  A
C139        N144   1.352       .  A
C139       C1480   1.496       .  S
N140        C141   1.353       .  A
C141        N142   1.352       .  A
C141       C1662   1.450       .  S
N142        C143   1.350       .  A
C143        N144   1.355       .  A
C143       C1491   1.484   1_455  S
C145        N146   1.371       .  A
C145        N150   1.352       .  A
C145       C1449   1.508       .  S
N146        C147   1.373       .  A
C147        N148   1.376       .  A
C147        C291   1.513       .  S
N148        C149   1.372       .  A
C149        N150   1.351       .  A
C149       C1463   1.506       .  S
C151        N152   1.348       .  A
C151        N156   1.350       .  A
C151       C1435   1.468       .  S
N152        C153   1.357       .  A
C153        N154   1.364       .  A
C153       C1407   1.492       .  S
N154        C155   1.362       .  A
C155        N156   1.356       .  A
C155       C1421   1.499       .  S
O157       Zr193   2.491       .  S
O157        C168   1.302       .  A
O158       Zr192   2.463       .  S
O158        C169   1.295       .  A
O159       Zr165   2.449       .  S
O159        C170   1.294       .  A
O160       Zr165   2.500       .  S
O160        C171   1.303       .  A
O161       Zr195   2.438       .  S
O161        C171   1.291       .  A
O162       Zr194   2.406       .  S
O162        C170   1.287       .  A
O163       Zr165   2.412       .  S
O163        C169   1.287       .  A
O164       Zr165   2.434       .  S
O164        C168   1.290       .  A
Zr165       O166   2.339       .  S
Zr165       O167   2.343       .  S
Zr165       O175   2.333       .  S
Zr165       O173   2.365       .  S
O166       Zr192   2.364       .  S
O166       Zr195   2.350       .  S
O167       Zr193   2.337       .  S
O167       Zr194   2.357       .  S
C168       C2205   1.517       .  S
C169       C1550   1.474       .  S
C170       C1424   1.494       .  S
C171       C1578   1.505       .  S
H172        O173   0.968       .  S
O173       Zr192   2.332       .  S
O173       Zr194   2.329       .  S
H174        O175   0.966       .  S
O175       Zr193   2.326       .  S
O175       Zr195   2.341       .  S
O176       Zr192   2.479       .  S
O176        C199   1.300       .  A
O177       Zr193   2.443       .  S
O177        C200   1.293       .  A
O178       Zr194   2.504       .  S
O178        C201   1.304       .  A
O179       Zr195   2.467       .  S
O179        C202   1.298       .  A
O180       Zr195   2.494       .  S
O180        C203   1.303       .  A
O181       Zr194   2.452       .  S
O181        C204   1.295       .  A
O182       Zr196   2.502       .  S
O182        C205   1.304       .  A
O183       Zr196   2.462       .  S
O183        C206   1.296       .  A
O184       Zr194   2.418       .  S
O184        C205   1.287       .  A
O185       Zr195   2.441       .  S
O185        C206   1.293       .  A
O186       Zr192   2.429       .  S
O186        C201   1.289       .  A
O187       Zr193   2.414       .  S
O187        C204   1.288       .  A
O188       Zr193   2.447       .  S
O188        C203   1.293       .  A
O189       Zr192   2.384       .  S
O189        C202   1.280       .  A
O190       Zr196   2.432       .  S
O190        C199   1.290       .  A
O191       Zr196   2.424       .  S
O191        C200   1.290       .  A
Zr192       O198   2.326       .  S
Zr192       O210   2.333       .  S
Zr193       O197   2.349       .  S
Zr193       O208   2.367       .  S
Zr194       O198   2.331       .  S
Zr194       O208   2.351       .  S
Zr195       O197   2.345       .  S
Zr195       O210   2.359       .  S
Zr196       O197   2.363       .  S
Zr196       O198   2.337       .  S
Zr196       O210   2.345       .  S
Zr196       O208   2.344       .  S
C199       C1379   1.515       .  S
C200       C1368   1.477       .  S
C201       C1452   1.522       .  S
C202       C1393   1.491       .  S
C203       C1774   1.527       .  S
C204       C2180   1.477       .  S
C205       C1351   1.499       .  S
C206       C1746   1.483       .  S
H207        O208   0.968       .  S
H209        O210   0.965       .  S
C211        N212   1.374       .  A
C211        N216   1.353       .  A
C211       C1337   1.520       .  S
N212        C213   1.378       .  A
C213        N214   1.376       .  A
C213        C603   1.515       .  S
N214        C215   1.370       .  A
C215        N216   1.350       .  A
C215       C1323   1.513       .  S
C217        N218   1.348       .  A
C217        N222   1.354       .  A
C217       C1309   1.459       .  S
N218        C219   1.348       .  A
C219        N220   1.350       .  A
C219       C1281   1.449       .  S
N220        C221   1.351       .  A
C221        N222   1.355       .  A
C221       C1295   1.455       .  S
O223       Zr259   2.486       .  S
O223        C234   1.300       .  A
O224       Zr258   2.468       .  S
O224        C235   1.296       .  A
O225       Zr231   2.459       .  S
O225        C236   1.296       .  A
O226       Zr231   2.490       .  S
O226        C237   1.302       .  A
O227       Zr261   2.434       .  S
O227        C237   1.291       .  A
O228       Zr260   2.408       .  S
O228        C236   1.287       .  A
O229       Zr231   2.385       .  S
O229        C235   1.278       .  A
O230       Zr231   2.434       .  S
O230        C234   1.290       .  A
Zr231       O232   2.330       .  S
Zr231       O233   2.342       .  S
Zr231       O241   2.323       .  S
Zr231       O239   2.365       .  S
O232       Zr258   2.356       .  S
O232       Zr261   2.334       .  S
O233       Zr259   2.330       .  S
O233       Zr260   2.362       .  S
C234       C1998   1.501       .  S
C235       C1858   1.495       .  S
C236       C1239   1.478       .  S
C237       C1886   1.514       .  S
H238        O239   0.969       .  S
O239       Zr258   2.344       .  S
O239       Zr260   2.344       .  S
H240        O241   0.967       .  S
O241       Zr259   2.325       .  S
O241       Zr261   2.334       .  S
O242       Zr258   2.481       .  S
O242        C265   1.300       .  A
O243       Zr259   2.415       .  S
O243        C266   1.287       .  A
O244       Zr260   2.487       .  S
O244        C267   1.301       .  A
O245       Zr261   2.449       .  S
O245        C268   1.293       .  A
O246       Zr261   2.487       .  S
O246        C269   1.302       .  A
O247       Zr260   2.459       .  S
O247        C270   1.295       .  A
O248       Zr262   2.506       .  S
O248        C271   1.306       .  A
O249       Zr262   2.468       .  S
O249        C272   1.298       .  A
O250       Zr260   2.428       .  S
O250        C271   1.289       .  A
O251       Zr261   2.407       .  S
O251        C272   1.286       .  A
O252       Zr258   2.433       .  S
O252        C267   1.291       .  A
O253       Zr259   2.414       .  S
O253        C270   1.287       .  A
O254       Zr259   2.434       .  S
O254        C269   1.290       .  A
O255       Zr258   2.410       .  S
O255        C268   1.287       .  A
O256       Zr262   2.432       .  S
O256        C265   1.291       .  A
O257       Zr262   2.427       .  S
O257        C266   1.292       .  A
Zr258       O264   2.335       .  S
Zr258       O276   2.342       .  S
Zr259       O263   2.346       .  S
Zr259       O274   2.369       .  S
Zr260       O264   2.329       .  S
Zr260       O274   2.348       .  S
Zr261       O263   2.324       .  S
Zr261       O276   2.361       .  S
Zr262       O263   2.353       .  S
Zr262       O264   2.338       .  S
Zr262       O276   2.345       .  S
Zr262       O274   2.340       .  S
C265       C1256   1.504       .  S
C266       C1298   1.462       .  S
C267       C1228   1.511       .  S
C268       C1270   1.467       .  S
C269       C1701   1.524       .  S
C270       C1970   1.472       .  S
C271       C1326   1.524       .  S
C272       C1676   1.500       .  S
H273        O274   0.964       .  S
H275        O276   0.966       .  S
C277        N278   1.368       .  A
C277        N282   1.348       .  A
C277       C1382   1.519       .  S
N278        C279   1.375       .  A
C279        N280   1.376       .  A
C279        C437   1.507       .  S
N280        C281   1.372       .  A
C281        N282   1.350       .  A
C281       C1214   1.521       .  S
C283        N284   1.352       .  A
C283        N288   1.350       .  A
C283       C1200   1.478       .  S
N284        C285   1.356       .  A
C285        N286   1.357       .  A
C285       C1284   1.453       .  S
N286        C287   1.352       .  A
C287        N288   1.355       .  A
C287       C1396   1.481       .  S
C289        N290   1.372       .  A
C289        N294   1.350       .  A
C289       C1186   1.505       .  S
N290        C291   1.377       .  A
C291        N292   1.373       .  A
N292        C293   1.369       .  A
C293        N294   1.349       .  A
C293       C1253   1.496       .  S
C295        N296   1.354       .  A
C295        N300   1.358       .  A
C295       C1267   1.478       .  S
N296        C297   1.353       .  A
C297        N298   1.355       .  A
C297       C1172   1.471       .  S
N298        C299   1.360       .  A
C299        N300   1.360       .  A
C299       C1155   1.496       .  S
O301       Zr337   2.486       .  S
O301        C312   1.301       .  A
O302       Zr336   2.437       .  S
O302        C313   1.292       .  A
O303       Zr309   2.493       .  S
O303        C314   1.303       .  A
O304       Zr309   2.446       .  S
O304        C315   1.293       .  A
O305       Zr339   2.432       .  S
O305        C315   1.291       .  A
O306       Zr338   2.395       .  S
O306        C314   1.283       .  A
O307       Zr309   2.441       .  S
O307        C313   1.294       .  A
O308       Zr309   2.455       .  S
O308        C312   1.295       .  A
Zr309       O310   2.370       .  S
Zr309       O311   2.334       .  S
Zr309       O319   2.348       .  S
Zr309       O317   2.332       .  S
O310       Zr336   2.352       .  S
O310       Zr339   2.345       .  S
O311       Zr337   2.326       .  S
O311       Zr338   2.330       .  S
C312       C2222   1.521       .  S
C313       C1606   1.482       .  S
C314       C1634   1.508       .  S
C315       C1169   1.473       .  S
H316        O317   0.960       .  S
O317       Zr336   2.368       .  S
O317       Zr338   2.347       .  S
H318        O319   0.964       .  S
O319       Zr337   2.336       .  S
O319       Zr339   2.361       .  S
O320       Zr336   2.490       .  S
O320        C343   1.301       .  A
O321       Zr337   2.453       .  S
O321        C344   1.294       .  A
O322       Zr338   2.473       .  S
O322        C345   1.299       .  A
O323       Zr339   2.481       .  S
O323        C346   1.300       .  A
O324       Zr339   2.444       .  S
O324        C347   1.293       .  A
O325       Zr338   2.517       .  S
O325        C348   1.307       .  A
O326       Zr340   2.477       .  S
O326        C349   1.299       .  A
O327       Zr340   2.484       .  S
O327        C350   1.302       .  A
O328       Zr338   2.400       .  S
O328        C349   1.286       .  A
O329       Zr339   2.442       .  S
O329        C350   1.292       .  A
O330       Zr336   2.413       .  S
O330        C345   1.288       .  A
O331       Zr337   2.432       .  S
O331        C348   1.289       .  A
O332       Zr337   2.415       .  S
O332        C347   1.288       .  A
O333       Zr336   2.454       .  S
O333        C346   1.294       .  A
O334       Zr340   2.429       .  S
O334        C343   1.289       .  A
O335       Zr340   2.401       .  S
O335        C344   1.286       .  A
Zr336       O342   2.336       .  S
Zr336       O354   2.327       .  S
Zr337       O341   2.355       .  S
Zr337       O352   2.353       .  S
Zr338       O342   2.355       .  S
Zr338       O352   2.331       .  S
Zr339       O341   2.345       .  S
Zr339       O354   2.340       .  S
Zr340       O341   2.345       .  S
Zr340       O342   2.334       .  S
Zr340       O354   2.335       .  S
Zr340       O352   2.364       .  S
C343       C1211   1.533       .  S
C344       C1141   1.465       .  S
C345       C1197   1.481       .  S
C346       C1183   1.508       .  S
C347       C2194   1.493       .  S
C348       C2012   1.535       .  S
C349       C1984   1.485       .  S
C350       C1130   1.509       .  S
H351        O352   0.965       .  S
H353        O354   0.966       .  S
C355        N356   1.353       .  A
C355        N360   1.369       .  A
C355       C1113   1.501       .  S
N356        C357   1.354       .  A
C357        N358   1.373       .  A
C357       C1099   1.510       .  S
N358        C359   1.375       .  A
C359        N360   1.374       .  A
C359        C461   1.514       .  S
C361        N362   1.354       .  A
C361        N366   1.353       .  A
C361       C1071   1.476       .  S
N362        C363   1.352       .  A
C363        N364   1.358       .  A
C363       C1088   1.480       .  S
N364        C365   1.364       .  A
C365        N366   1.359       .  A
C365       C1410   1.498   1_655  S
C367        N368   1.372       .  A
C367        N372   1.353       .  A
C367       C1057   1.511       .  S
N368        C369   1.375       .  A
C369        N370   1.372       .  A
C369        C525   1.507       .  S
N370        C371   1.366       .  A
C371        N372   1.349       .  A
C371       C1354   1.492       .  S
C373        N374   1.350       .  A
C373        N378   1.354       .  A
C373       C1043   1.475       .  S
N374        C375   1.349       .  A
C375        N376   1.357       .  A
C375       C1365   1.479       .  S
N376        C377   1.360       .  A
C377        N378   1.362       .  A
C377       C1032   1.498       .  S
O379       Zr415   2.476       .  S
O379        C390   1.300       .  A
O380       Zr414   2.457       .  S
O380        C391   1.295       .  A
O381       Zr387   2.499       .  S
O381        C392   1.304       .  A
O382       Zr387   2.463       .  S
O382        C393   1.297       .  A
O383       Zr417   2.424       .  S
O383        C393   1.290       .  A
O384       Zr416   2.423       .  S
O384        C392   1.288       .  A
O385       Zr387   2.425       .  S
O385        C391   1.291       .  A
O386       Zr387   2.437       .  S
O386        C390   1.291       .  A
Zr387       O388   2.359       .  S
Zr387       O389   2.335       .  S
Zr387       O397   2.344       .  S
Zr387       O395   2.344       .  S
O388       Zr414   2.342       .  S
O388       Zr417   2.327       .  S
O389       Zr415   2.338       .  S
O389       Zr416   2.332       .  S
C390       C2082   1.519       .  S
C391       C1900   1.476       .  S
C392       C1928   1.507       .  S
C393       C1046   1.499       .  S
H394        O395   0.970       .  S
O395       Zr414   2.372       .  S
O395       Zr416   2.354       .  S
H396        O397   0.965       .  S
O397       Zr415   2.336       .  S
O397       Zr417   2.364       .  S
O398       Zr414   2.503       .  S
O398        C421   1.305       .  A
O399       Zr415   2.461       .  S
O399        C422   1.296       .  A
O400       Zr416   2.461       .  S
O400        C423   1.296       .  A
O401       Zr417   2.478       .  S
O401        C424   1.299       .  A
O402       Zr417   2.424       .  S
O402        C425   1.289       .  A
O403       Zr416   2.486       .  S
O403        C426   1.301       .  A
O404       Zr418   2.449       .  S
O404        C427   1.293       .  A
O405       Zr418   2.461       .  S
O405        C428   1.295       .  A
O406       Zr416   2.416       .  S
O406        C427   1.288       .  A
O407       Zr417   2.451       .  S
O407        C428   1.294       .  A
O408       Zr414   2.400       .  S
O408        C423   1.285       .  A
O409       Zr415   2.448       .  S
O409        C426   1.294       .  A
O410       Zr415   2.438       .  S
O410        C425   1.293       .  A
O411       Zr414   2.442       .  S
O411        C424   1.292       .  A
O412       Zr418   2.423       .  S
O412        C421   1.288       .  A
O413       Zr418   2.393       .  S
O413        C422   1.282       .  A
Zr414       O420   2.339       .  S
Zr414       O432   2.322       .  S
Zr415       O419   2.359       .  S
Zr415       O430   2.344       .  S
Zr416       O420   2.356       .  S
Zr416       O430   2.342       .  S
Zr417       O419   2.348       .  S
Zr417       O432   2.328       .  S
Zr418       O419   2.335       .  S
Zr418       O420   2.337       .  S
Zr418       O432   2.334       .  S
Zr418       O430   2.354       .  S
C421       C1102   1.515       .  S
C422       C1015   1.496       .  S
C423       C1074   1.500       .  S
C424       C1060   1.522       .  S
C425       C2054   1.472       .  S
C426       C1561   1.516       .  S
C427       C1533   1.470       .  S
C428       C1001   1.494       .  S
H429        O430   0.967       .  S
H431        O432   0.966       .  S
C433        N434   1.356       .  A
C433        N438   1.375       .  A
C433        C987   1.522       .  S
N434        C435   1.353       .  A
C435        N436   1.364       .  A
C435       C1004   1.496       .  S
N436        C437   1.370       .  A
C437        N438   1.376       .  A
C439        N440   1.353       .  A
C439        N444   1.350       .  A
C439        C973   1.469       .  S
N440        C441   1.359       .  A
C441        N442   1.361       .  A
C441        C959   1.494       .  S
N442        C443   1.356       .  A
C443        N444   1.353       .  A
C443       C1018   1.473       .  S
C445        N446   1.373       .  A
C445        N450   1.354       .  A
C445        C945   1.517       .  S
N446        C447   1.376       .  A
C447        N448   1.369       .  A
C447        C593   1.507       .  S
N448        C449   1.366       .  A
C449        N450   1.353       .  A
C449       C1127   1.497       .  S
C451        N452   1.352       .  A
C451        N456   1.354       .  A
C451       C1144   1.471       .  S
N452        C453   1.353       .  A
C453        N454   1.350       .  A
C453        C931   1.455       .  S
N454        C455   1.353       .  A
C455        N456   1.355       .  A
C455       C1029   1.492       .  S
C457        N458   1.350       .  A
C457        N462   1.371       .  A
C457        C903   1.510       .  S
N458        C459   1.351       .  A
C459        N460   1.373       .  A
C459        C917   1.517       .  S
N460        C461   1.376       .  A
C461        N462   1.375       .  A
C463        N464   1.354       .  A
C463        N468   1.356       .  A
C463        C889   1.475       .  S
N464        C465   1.356       .  A
C465        N466   1.356       .  A
C465        C875   1.483       .  S
N466        C467   1.358       .  A
C467        N468   1.361       .  A
C467       C1158   1.497   1_655  S
O469       Zr505   2.484       .  S
O469        C480   1.301       .  A
O470       Zr504   2.463       .  S
O470        C481   1.297       .  A
O471       Zr477   2.453       .  S
O471        C482   1.294       .  A
O472       Zr477   2.507       .  S
O472        C483   1.305       .  A
O473       Zr507   2.408       .  S
O473        C483   1.285       .  A
O474       Zr506   2.425       .  S
O474        C482   1.290       .  A
O475       Zr477   2.393       .  S
O475        C481   1.282       .  A
O476       Zr477   2.434       .  S
O476        C480   1.291       .  A
Zr477       O478   2.328       .  S
Zr477       O479   2.348       .  S
Zr477       O487   2.324       .  S
Zr477       O485   2.369       .  S
O478       Zr504   2.363       .  S
O478       Zr507   2.343       .  S
O479       Zr505   2.331       .  S
O479       Zr506   2.361       .  S
C480       C1942   1.513       .  S
C481       C1620   1.498       .  S
C482        C892   1.475       .  S
C483       C1648   1.519       .  S
H484        O485   0.965       .  S
O485       Zr504   2.344       .  S
O485       Zr506   2.340       .  S
H486        O487   0.968       .  S
O487       Zr505   2.337       .  S
O487       Zr507   2.325       .  S
O488       Zr504   2.493       .  S
O488        C511   1.303       .  A
O489       Zr505   2.439       .  S
O489        C512   1.292       .  A
O490       Zr506   2.489       .  S
O490        C513   1.302       .  A
O491       Zr507   2.449       .  S
O491        C514   1.293       .  A
O492       Zr507   2.510       .  S
O492        C515   1.305       .  A
O493       Zr506   2.465       .  S
O493        C516   1.298       .  A
O494       Zr508   2.488       .  S
O494        C517   1.302       .  A
O495       Zr508   2.468       .  S
O495        C518   1.297       .  A
O496       Zr506   2.445       .  S
O496        C517   1.293       .  A
O497       Zr507   2.385       .  S
O497        C518   1.281       .  A
O498       Zr504   2.430       .  S
O498        C513   1.290       .  A
O499       Zr505   2.415       .  S
O499        C516   1.288       .  A
O500       Zr505   2.435       .  S
O500        C515   1.290       .  A
O501       Zr504   2.404       .  S
O501        C514   1.286       .  A
O502       Zr508   2.429       .  S
O502        C511   1.290       .  A
O503       Zr508   2.400       .  S
O503        C512   1.286       .  A
Zr504       O510   2.330       .  S
Zr504       O522   2.338       .  S
Zr505       O509   2.343       .  S
Zr505       O520   2.367       .  S
Zr506       O510   2.334       .  S
Zr506       O520   2.347       .  S
Zr507       O509   2.326       .  S
Zr507       O522   2.363       .  S
Zr508       O509   2.356       .  S
Zr508       O510   2.332       .  S
Zr508       O522   2.333       .  S
Zr508       O520   2.347       .  S
C511        C990   1.515       .  S
C512        C934   1.458       .  S
C513        C920   1.513       .  S
C514        C976   1.463       .  S
C515       C1830   1.514       .  S
C516       C1911   1.487       .  S
C517        C948   1.515       .  S
C518       C1802   1.493       .  S
H519        O520   0.968       .  S
H521        O522   0.965       .  S
C523        N524   1.369       .  A
C523        N528   1.355       .  A
C523        C847   1.512       .  S
N524        C525   1.373       .  A
C525        N526   1.372       .  A
N526        C527   1.369       .  A
C527        N528   1.353       .  A
C527        C861   1.505       .  S
C529        N530   1.357       .  A
C529        N534   1.356       .  A
C529        C836   1.481       .  S
N530        C531   1.358       .  A
C531        N532   1.355       .  A
C531        C805   1.494       .  S
N532        C533   1.349       .  A
C533        N534   1.356       .  A
C533        C819   1.466       .  S
O535       Zr571   2.490       .  S
O535        C546   1.302       .  A
O536       Zr570   2.485       .  S
O536        C547   1.302       .  A
O537       Zr543   2.441       .  S
O537        C548   1.291       .  A
O538       Zr543   2.489       .  S
O538        C549   1.300       .  A
O539       Zr573   2.443       .  S
O539        C549   1.292       .  A
O540       Zr572   2.435       .  S
O540        C548   1.291       .  A
O541       Zr543   2.378       .  S
O541        C547   1.279       .  A
O542       Zr543   2.425       .  S
O542        C546   1.288       .  A
Zr543       O544   2.335       .  S
Zr543       O545   2.342       .  S
Zr543       O553   2.319       .  S
Zr543       O551   2.367       .  S
O544       Zr570   2.370       .  S
O544       Zr573   2.346       .  S
O545       Zr571   2.334       .  S
O545       Zr572   2.369       .  S
C546       C2138   1.514       .  S
C547       C1494   1.493       .  S
C548       C1085   1.475       .  S
C549       C1522   1.508       .  S
H550        O551   0.963       .  S
O551       Zr570   2.344       .  S
O551       Zr572   2.333       .  S
H552        O553   0.965       .  S
O553       Zr571   2.330       .  S
O553       Zr573   2.331       .  S
O554       Zr570   2.521       .  S
O554        C577   1.308       .  A
O555       Zr571   2.442       .  S
O555        C578   1.292       .  A
O556       Zr572   2.512       .  S
O556        C579   1.306       .  A
O557       Zr573   2.468       .  S
O557        C580   1.298       .  A
O558       Zr573   2.503       .  S
O558        C581   1.305       .  A
O559       Zr572   2.462       .  S
O559        C582   1.297       .  A
O560       Zr574   2.487       .  S
O560        C583   1.301       .  A
O561       Zr574   2.470       .  S
O561        C584   1.298       .  A
O562       Zr572   2.438       .  S
O562        C583   1.292       .  A
O563       Zr573   2.403       .  S
O563        C584   1.286       .  A
O564       Zr570   2.432       .  S
O564        C579   1.290       .  A
O565       Zr571   2.420       .  S
O565        C582   1.290       .  A
O566       Zr571   2.430       .  S
O566        C581   1.290       .  A
O567       Zr570   2.394       .  S
O567        C580   1.284       .  A
O568       Zr574   2.417       .  S
O568        C577   1.287       .  A
O569       Zr574   2.406       .  S
O569        C578   1.286       .  A
Zr570       O576   2.332       .  S
Zr570       O588   2.348       .  S
Zr571       O575   2.344       .  S
Zr571       O586   2.366       .  S
Zr572       O576   2.337       .  S
Zr572       O586   2.355       .  S
Zr573       O575   2.335       .  S
Zr573       O588   2.366       .  S
Zr574       O575   2.351       .  S
Zr574       O576   2.339       .  S
Zr574       O588   2.341       .  S
Zr574       O586   2.342       .  S
C577        C780   1.523       .  S
C578        C833   1.465       .  S
C579       C1116   1.514       .  S
C580        C791   1.468       .  S
C581       C2068   1.530       .  S
C582       C2110   1.497       .  S
C583        C864   1.515       .  S
C584       C2040   1.493       .  S
H585        O586   0.967       .  S
H587        O588   0.968       .  S
C589        N590   1.355       .  A
C589        N594   1.372       .  A
C589       C1225   1.507       .  S
N590        C591   1.353       .  A
C591        N592   1.367       .  A
C591        C763   1.492       .  S
N592        C593   1.369       .  A
C593        N594   1.375       .  A
C595        N596   1.354       .  A
C595        N600   1.350       .  A
C595       C1242   1.463       .  S
N596        C597   1.362       .  A
C597        N598   1.362       .  A
C597        C808   1.496       .  S
N598        C599   1.355       .  A
C599        N600   1.349       .  A
C599        C752   1.478       .  S
C601        N602   1.371       .  A
C601        N606   1.352       .  A
C601        C735   1.517       .  S
N602        C603   1.374       .  A
C603        N604   1.377       .  A
N604        C605   1.374       .  A
C605        N606   1.350       .  A
C605        C777   1.510       .  S
C607        N608   1.351       .  A
C607        N612   1.353       .  A
C607        C794   1.471       .  S
N608        C609   1.355       .  A
C609        N610   1.359       .  A
C609        C962   1.494       .  S
N610        C611   1.355       .  A
C611        N612   1.354       .  A
C611        C724   1.465       .  S
O613       Zr649   2.518       .  S
O613        C624   1.308       .  A
O614       Zr648   2.472       .  S
O614        C625   1.299       .  A
O615       Zr621   2.482       .  S
O615        C626   1.301       .  A
O616       Zr621   2.459       .  S
O616        C627   1.294       .  A
O617       Zr651   2.394       .  S
O617        C627   1.284       .  A
O618       Zr650   2.440       .  S
O618        C626   1.292       .  A
O619       Zr621   2.407       .  S
O619        C625   1.286       .  A
O620       Zr621   2.405       .  S
O620        C624   1.285       .  A
Zr621       O622   2.352       .  S
Zr621       O623   2.335       .  S
Zr621       O631   2.342       .  S
Zr621       O629   2.331       .  S
O622       Zr648   2.347       .  S
O622       Zr651   2.338       .  S
O623       Zr649   2.330       .  S
O623       Zr650   2.334       .  S
C624       C2152   1.517       .  S
C625       C1690   1.496       .  S
C626       C1718   1.517       .  S
C627        C878   1.467       .  S
H628        O629   0.963       .  S
O629       Zr648   2.356       .  S
O629       Zr650   2.352       .  S
H630        O631   0.966       .  S
O631       Zr649   2.335       .  S
O631       Zr651   2.366       .  S
O632       Zr648   2.491       .  S
O632        C655   1.303       .  A
O633       Zr649   2.455       .  S
O633        C656   1.295       .  A
O634       Zr650   2.439       .  S
O634        C657   1.291       .  A
O635       Zr651   2.500       .  S
O635        C658   1.304       .  A
O636       Zr651   2.446       .  S
O636        C659   1.293       .  A
O637       Zr650   2.487       .  S
O637        C660   1.301       .  A
O638       Zr652   2.430       .  S
O638        C661   1.289       .  A
O639       Zr652   2.505       .  S
O639        C662   1.304       .  A
O640       Zr650   2.436       .  S
O640        C661   1.291       .  A
O641       Zr651   2.420       .  S
O641        C662   1.287       .  A
O642       Zr648   2.437       .  S
O642        C657   1.293       .  A
O643       Zr649   2.438       .  S
O643        C660   1.291       .  A
O644       Zr649   2.421       .  S
O644        C659   1.290       .  A
O645       Zr648   2.434       .  S
O645        C658   1.291       .  A
O646       Zr652   2.431       .  S
O646        C655   1.290       .  A
O647       Zr652   2.428       .  S
O647        C656   1.291       .  A
Zr648       O654   2.343       .  S
Zr648       O666   2.341       .  S
Zr649       O653   2.370       .  S
Zr649       O664   2.348       .  S
Zr650       O654   2.361       .  S
Zr650       O664   2.333       .  S
Zr651       O653   2.344       .  S
Zr651       O666   2.327       .  S
Zr652       O653   2.328       .  S
Zr652       O654   2.353       .  S
Zr652       O666   2.325       .  S
Zr652       O664   2.368       .  S
C655        C738   1.524       .  S
C656        C749   1.503       .  S
C657        C721   1.472       .  S
C658        C906   1.520       .  S
C659       C2124   1.474       .  S
C660       C1816   1.506       .  S
C661       C1788   1.471       .  S
C662        C766   1.503       .  S
H663        O664   0.966       .  S
H665        O666   0.968       .  S
O667       Zr703   2.471       .  S
O667        C678   1.298       .  A
O668       Zr702   2.443       .  S
O668        C679   1.292       .  A
O669       Zr675   2.495       .  S
O669        C680   1.303       .  A
O670       Zr675   2.428       .  S
O670        C681   1.290       .  A
O671       Zr705   2.443       .  S
O671        C681   1.294       .  A
O672       Zr704   2.428       .  S
O672        C680   1.289       .  A
O673       Zr675   2.401       .  S
O673        C679   1.287       .  A
O674       Zr675   2.434       .  S
O674        C678   1.291       .  A
Zr675       O676   2.359       .  S
Zr675       O677   2.320       .  S
Zr675       O685   2.343       .  S
Zr675       O683   2.329       .  S
O676       Zr702   2.341       .  S
O676       Zr705   2.331       .  S
O677       Zr703   2.326       .  S
O677       Zr704   2.317       .  S
C678       C1872   1.511       .  S
C679       C1477   1.482       .  S
C680       C1505   1.517       .  S
C681       C1438   1.469       .  S
H682        O683   0.963       .  S
O683       Zr702   2.377       .  S
O683       Zr704   2.351       .  S
H684        O685   0.964       .  S
O685       Zr703   2.331       .  S
O685       Zr705   2.363       .  S
O686       Zr702   2.490       .  S
O686        C709   1.302       .  A
O687       Zr703   2.448       .  S
O687        C710   1.292       .  A
O688       Zr704   2.438       .  S
O688        C711   1.291       .  A
O689       Zr705   2.491       .  S
O689        C712   1.302       .  A
O690       Zr705   2.448       .  S
O690        C713   1.294       .  A
O691       Zr704   2.500       .  S
O691        C714   1.304       .  A
O692       Zr706   2.458       .  S
O692        C715   1.296       .  A
O693       Zr706   2.479       .  S
O693        C716   1.301       .  A
O694       Zr704   2.398       .  S
O694        C715   1.285       .  A
O695       Zr705   2.440       .  S
O695        C716   1.292       .  A
O696       Zr702   2.392       .  S
O696        C711   1.284       .  A
O697       Zr703   2.427       .  S
O697        C714   1.289       .  A
O698       Zr703   2.404       .  S
O698        C713   1.285       .  A
O699       Zr702   2.434       .  S
O699        C712   1.290       .  A
O700       Zr706   2.424       .  S
O700        C709   1.289       .  A
O701       Zr706   2.407       .  S
O701        C710   1.286       .  A
Zr702       O708   2.332       .  S
Zr702       O720   2.319       .  S
Zr703       O707   2.354       .  S
Zr703       O718   2.340       .  S
Zr704       O708   2.360       .  S
Zr704       O718   2.331       .  S
Zr705       O707   2.352       .  S
Zr705       O720   2.340       .  S
Zr706       O707   2.342       .  S
Zr706       O708   2.329       .  S
Zr706       O720   2.332       .  S
Zr706       O718   2.360       .  S
C709       C1340   1.517       .  S
C710        C822   1.463       .  S
C711       C1312   1.452       .  S
C712       C1466   1.506       .  S
C713       C1844   1.488       .  S
C714       C1757   1.518       .  S
C715       C1729   1.492       .  S
C716        C850   1.509       .  S
H717        O718   0.967       .  S
H719        O720   0.965       .  S
C721        C722   1.413       .  A
C721        C726   1.408       .  A
C722        C723   1.405       .  A
C722        C727   1.451       .  S
C723        C724   1.406       .  A
C723        C730   1.451       .  S
C724        C725   1.409       .  A
C725        C726   1.407       .  A
C725        C728   1.451       .  S
C726        C729   1.446       .  S
C727        N734   1.157       .  T
C728        N733   1.157       .  T
C729        N731   1.156       .  T
C730        N732   1.157       .  T
C735        C736   1.414       .  A
C735        C740   1.424       .  A
C736        C737   1.423       .  A
C736        C741   1.451       .  S
C737        C738   1.431       .  A
C737        C744   1.451       .  S
C738        C739   1.419       .  A
C739        C740   1.417       .  A
C739        C742   1.453       .  S
C740        C743   1.454       .  S
C741        N748   1.158       .  T
C742        N747   1.158       .  T
C743        N745   1.158       .  T
C744        N746   1.158       .  T
C749        C750   1.424       .  A
C749        C754   1.425       .  A
C750        C751   1.413       .  A
C750        C755   1.451       .  S
C751        C752   1.409       .  A
C751        C758   1.452       .  S
C752        C753   1.408       .  A
C753        C754   1.406       .  A
C753        C756   1.454       .  S
C754        C757   1.453       .  S
C755        N762   1.157       .  T
C756        N761   1.157       .  T
C757        N759   1.157       .  T
C758        N760   1.157       .  T
C763        C764   1.408       .  A
C763        C768   1.414       .  A
C764        C765   1.415       .  A
C764        C769   1.452       .  S
C765        C766   1.417       .  A
C765        C772   1.443       .  S
C766        C767   1.415       .  A
C767        C768   1.420       .  A
C767        C770   1.449       .  S
C768        C771   1.449       .  S
C769        N776   1.157       .  T
C770        N775   1.157       .  T
C771        N773   1.157       .  T
C772        N774   1.154       .  T
C777        C778   1.409       .  A
C777        C782   1.422       .  A
C778        C779   1.422       .  A
C778        C783   1.452       .  S
C779        C780   1.429       .  A
C779        C786   1.448       .  S
C780        C781   1.417       .  A
C781        C782   1.423       .  A
C781        C784   1.450       .  S
C782        C785   1.451       .  S
C783        N790   1.157       .  T
C784        N789   1.157       .  T
C785        N787   1.157       .  T
C786        N788   1.156       .  T
C791        C792   1.407       .  A
C791        C796   1.410       .  A
C792        C793   1.402       .  A
C792        C797   1.445       .  S
C793        C794   1.410       .  A
C793        C800   1.453       .  S
C794        C795   1.414       .  A
C795        C796   1.409       .  A
C795        C798   1.450       .  S
C796        C799   1.452       .  S
C797        N804   1.154       .  T
C798        N803   1.157       .  T
C799        N801   1.158       .  T
C800        N802   1.157       .  T
C805        C806   1.417       .  A
C805        C810   1.415       .  A
C806        C807   1.407   1_554  A
C806        C811   1.453       .  S
C807        C808   1.416       .  A
C807        C814   1.451       .  S
C808        C809   1.417       .  A
C809        C810   1.407   1_556  A
C809        C812   1.451       .  S
C810        C813   1.451       .  S
C811        N818   1.158       .  T
C812        N817   1.157       .  T
C813        N815   1.157       .  T
C814        N816   1.157       .  T
C819        C820   1.408       .  A
C819        C824   1.408       .  A
C820        C821   1.405       .  A
C820        C825   1.451       .  S
C821        C822   1.413       .  A
C821        C828   1.453       .  S
C822        C823   1.407       .  A
C823        C824   1.403       .  A
C823        C826   1.448       .  S
C824        C827   1.450       .  S
C825        N832   1.157       .  T
C826        N831   1.157       .  T
C827        N829   1.157       .  T
C828        N830   1.157       .  T
C833        C834   1.407       .  A
C833        C838   1.408       .  A
C834        C835   1.407       .  A
C834        C839   1.454       .  S
C835        C836   1.417       .  A
C835        C842   1.449       .  S
C836        C837   1.414       .  A
C837        C838   1.406       .  A
C837        C840   1.452       .  S
C838        C841   1.451       .  S
C839        N846   1.158       .  T
C840        N845   1.157       .  T
C841        N843   1.157       .  T
C842        N844   1.157       .  T
C847        C848   1.421       .  A
C847        C852   1.416       .  A
C848        C849   1.414       .  A
C848        C853   1.452       .  S
C849        C850   1.413       .  A
C849        C856   1.450       .  S
C850        C851   1.423       .  A
C851        C852   1.423       .  A
C851        C854   1.450       .  S
C852        C855   1.451       .  S
C853        N860   1.157       .  T
C854        N859   1.157       .  T
C855        N857   1.158       .  T
C856        N858   1.157       .  T
C861        C862   1.418       .  A
C861        C866   1.412       .  A
C862        C863   1.419       .  A
C862        C867   1.452       .  S
C863        C864   1.418       .  A
C863        C870   1.449       .  S
C864        C865   1.423       .  A
C865        C866   1.420       .  A
C865        C868   1.449       .  S
C866        C869   1.450       .  S
C867        N874   1.157       .  T
C868        N873   1.156       .  T
C869        N871   1.157       .  T
C870        N872   1.156       .  T
C875        C876   1.416       .  A
C875        C880   1.417       .  A
C876        C877   1.404       .  A
C876        C881   1.448       .  S
C877        C878   1.406       .  A
C877        C884   1.455       .  S
C878        C879   1.410       .  A
C879        C880   1.410       .  A
C879        C882   1.453       .  S
C880        C883   1.452       .  S
C881        N888   1.156       .  T
C882        N887   1.158       .  T
C883        N885   1.158       .  T
C884        N886   1.157       .  T
C889        C890   1.407       .  A
C889        C894   1.414       .  A
C890        C891   1.405       .  A
C890        C895   1.452       .  S
C891        C892   1.409       .  A
C891        C898   1.443       .  S
C892        C893   1.407       .  A
C893        C894   1.412       .  A
C893        C896   1.449       .  S
C894        C897   1.448       .  S
C895        N902   1.157       .  T
C896        N901   1.157       .  T
C897        N899   1.157       .  T
C898        N900   1.153       .  T
C903        C904   1.412       .  A
C903        C908   1.421       .  A
C904        C905   1.422       .  A
C904        C909   1.451       .  S
C905        C906   1.425       .  A
C905        C912   1.447       .  S
C906        C907   1.418       .  A
C907        C908   1.419       .  A
C907        C910   1.450       .  S
C908        C911   1.453       .  S
C909        N916   1.157       .  T
C910        N915   1.157       .  T
C911        N913   1.157       .  T
C912        N914   1.156       .  T
C917        C918   1.416       .  A
C917        C922   1.427       .  A
C918        C919   1.424       .  A
C918        C923   1.451       .  S
C919        C920   1.424       .  A
C919        C926   1.450       .  S
C920        C921   1.413       .  A
C921        C922   1.416       .  A
C921        C924   1.452       .  S
C922        C925   1.453       .  S
C923        N930   1.158       .  T
C924        N929   1.157       .  T
C925        N927   1.158       .  T
C926        N928   1.157       .  T
C931        C932   1.409       .  A
C931        C936   1.405       .  A
C932        C933   1.403       .  A
C932        C937   1.450       .  S
C933        C934   1.407       .  A
C933        C940   1.450       .  S
C934        C935   1.413       .  A
C935        C936   1.401       .  A
C935        C938   1.451       .  S
C936        C939   1.453       .  S
C937        N944   1.157       .  T
C938        N943   1.157       .  T
C939        N941   1.157       .  T
C940        N942   1.157       .  T
C945        C946   1.416       .  A
C945        C950   1.424       .  A
C946        C947   1.425       .  A
C946        C951   1.450       .  S
C947        C948   1.422       .  A
C947        C954   1.449       .  S
C948        C949   1.414       .  A
C949        C950   1.419       .  A
C949        C952   1.451       .  S
C950        C953   1.452       .  S
C951        N958   1.158       .  T
C952        N957   1.157       .  T
C953        N955   1.158       .  T
C954        N956   1.157       .  T
C959        C960   1.415       .  A
C959        C964   1.417       .  A
C960        C961   1.407   1_565  A
C960        C965   1.451       .  S
C961        C962   1.418       .  A
C961        C968   1.451       .  S
C962        C963   1.414       .  A
C963        C964   1.407   1_545  A
C963        C966   1.451       .  S
C964        C967   1.451       .  S
C965        N972   1.158       .  T
C966        N971   1.158       .  T
C967        N969   1.157       .  T
C968        N970   1.157       .  T
C973        C974   1.411       .  A
C973        C978   1.413       .  A
C974        C975   1.403       .  A
C974        C979   1.451       .  S
C975        C976   1.408       .  A
C975        C982   1.452       .  S
C976        C977   1.409       .  A
C977        C978   1.408       .  A
C977        C980   1.451       .  S
C978        C981   1.451       .  S
C979        N986   1.157       .  T
C980        N985   1.157       .  T
C981        N983   1.157       .  T
C982        N984   1.157       .  T
C987        C988   1.418       .  A
C987        C992   1.427       .  A
C988        C989   1.425       .  A
C988        C993   1.450       .  S
C989        C990   1.423       .  A
C989        C996   1.451       .  S
C990        C991   1.412       .  A
C991        C992   1.418       .  A
C991        C994   1.452       .  S
C992        C995   1.450       .  S
C993       N1000   1.158       .  T
C994        N999   1.157       .  T
C995        N997   1.156       .  T
C996        N998   1.157       .  T
C1001      C1002   1.410       .  A
C1001      C1006   1.415       .  A
C1002      C1003   1.412       .  A
C1002      C1007   1.452       .  S
C1003      C1004   1.413       .  A
C1003      C1010   1.449       .  S
C1004      C1005   1.414       .  A
C1005      C1006   1.421       .  A
C1005      C1008   1.449       .  S
C1006      C1009   1.449       .  S
C1007      N1014   1.157       .  T
C1008      N1013   1.157       .  T
C1009      N1011   1.157       .  T
C1010      N1012   1.157       .  T
C1015      C1016   1.428       .  A
C1015      C1020   1.418       .  A
C1016      C1017   1.401       .  A
C1016      C1021   1.455       .  S
C1017      C1018   1.405       .  A
C1017      C1024   1.457       .  S
C1018      C1019   1.410       .  A
C1019      C1020   1.414       .  A
C1019      C1022   1.450       .  S
C1020      C1023   1.451       .  S
C1021      N1028   1.158       .  T
C1022      N1027   1.157       .  T
C1023      N1025   1.158       .  T
C1024      N1026   1.157       .  T
C1029      C1030   1.416       .  A
C1029      C1034   1.415       .  A
C1030      C1031   1.407   1_556  A
C1030      C1035   1.452       .  S
C1031      C1032   1.418       .  A
C1031      C1038   1.451       .  S
C1032      C1033   1.419       .  A
C1033      C1034   1.406   1_554  A
C1033      C1036   1.449       .  S
C1034      C1037   1.454       .  S
C1035      N1042   1.158       .  T
C1036      N1041   1.157       .  T
C1037      N1039   1.158       .  T
C1038      N1040   1.157       .  T
C1043      C1044   1.410       .  A
C1043      C1048   1.404       .  A
C1044      C1045   1.414       .  A
C1044      C1049   1.451       .  S
C1045      C1046   1.420       .  A
C1045      C1052   1.451       .  S
C1046      C1047   1.426       .  A
C1047      C1048   1.404       .  A
C1047      C1050   1.450       .  S
C1048      C1051   1.457       .  S
C1049      N1056   1.157       .  T
C1050      N1055   1.156       .  T
C1051      N1053   1.157       .  T
C1052      N1054   1.157       .  T
C1057      C1058   1.420       .  A
C1057      C1062   1.413       .  A
C1058      C1059   1.417       .  A
C1058      C1063   1.453       .  S
C1059      C1060   1.420       .  A
C1059      C1066   1.452       .  S
C1060      C1061   1.428       .  A
C1061      C1062   1.424       .  A
C1061      C1064   1.451       .  S
C1062      C1065   1.449       .  S
C1063      N1070   1.157       .  T
C1064      N1069   1.157       .  T
C1065      N1067   1.157       .  T
C1066      N1068   1.158       .  T
C1071      C1072   1.404       .  A
C1071      C1076   1.410       .  A
C1072      C1073   1.402       .  A
C1072      C1077   1.456       .  S
C1073      C1074   1.428       .  A
C1073      C1080   1.454       .  S
C1074      C1075   1.421       .  A
C1075      C1076   1.414       .  A
C1075      C1078   1.452       .  S
C1076      C1079   1.451       .  S
C1077      N1084   1.157       .  T
C1078      N1083   1.158       .  T
C1079      N1081   1.157   1_655  T
C1080      N1082   1.158       .  T
C1085      C1086   1.409       .  A
C1085      C1090   1.409       .  A
C1086      C1087   1.409       .  A
C1086      C1091   1.450       .  S
C1087      C1088   1.412       .  A
C1087      C1094   1.450       .  S
C1088      C1089   1.412       .  A
C1089      C1090   1.409       .  A
C1089      C1092   1.451       .  S
C1090      C1093   1.448       .  S
C1091      N1098   1.157       .  T
C1092      N1097   1.157       .  T
C1093      N1095   1.156       .  T
C1094      N1096   1.157       .  T
C1099      C1100   1.413       .  A
C1099      C1104   1.420       .  A
C1100      C1101   1.423       .  A
C1100      C1105   1.451       .  S
C1101      C1102   1.425       .  A
C1101      C1108   1.450       .  S
C1102      C1103   1.415       .  A
C1103      C1104   1.418       .  A
C1103      C1106   1.451       .  S
C1104      C1107   1.449       .  S
C1105      N1112   1.157       .  T
C1106      N1111   1.157       .  T
C1107      N1109   1.156       .  T
C1108      N1110   1.157       .  T
C1113      C1114   1.410       .  A
C1113      C1118   1.414       .  A
C1114      C1115   1.421       .  A
C1114      C1119   1.452       .  S
C1115      C1116   1.420       .  A
C1115      C1122   1.441       .  S
C1116      C1117   1.414       .  A
C1117      C1118   1.420       .  A
C1117      C1120   1.446       .  S
C1118      C1121   1.448       .  S
C1119      N1126   1.158       .  T
C1120      N1125   1.156       .  T
C1121      N1123   1.157       .  T
C1122      N1124   1.153       .  T
C1127      C1128   1.412       .  A
C1127      C1132   1.414       .  A
C1128      C1129   1.421       .  A
C1128      C1133   1.451       .  S
C1129      C1130   1.421       .  A
C1129      C1136   1.447       .  S
C1130      C1131   1.415       .  A
C1131      C1132   1.414       .  A
C1131      C1134   1.445       .  S
C1132      C1135   1.453       .  S
C1133      N1140   1.157       .  T
C1134      N1139   1.154       .  T
C1135      N1137   1.157       .  T
C1136      N1138   1.156       .  T
C1141      C1142   1.407       .  A
C1141      C1146   1.409       .  A
C1142      C1143   1.400       .  A
C1142      C1147   1.444       .  S
C1143      C1144   1.409       .  A
C1143      C1150   1.454       .  S
C1144      C1145   1.414       .  A
C1145      C1146   1.408       .  A
C1145      C1148   1.450       .  S
C1146      C1149   1.452       .  S
C1147      N1154   1.154       .  T
C1148      N1153   1.157       .  T
C1149      N1151   1.157       .  T
C1150      N1152   1.157       .  T
C1155      C1156   1.414       .  A
C1155      C1160   1.413       .  A
C1156      C1157   1.409       .  A
C1156      C1161   1.451       .  S
C1157      C1158   1.417       .  A
C1157      C1164   1.450       .  S
C1158      C1159   1.415       .  A
C1159      C1160   1.409       .  A
C1159      C1162   1.450       .  S
C1160      C1163   1.450       .  S
C1161      N1168   1.157       .  T
C1162      N1167   1.157       .  T
C1163      N1165   1.157       .  T
C1164      N1166   1.157       .  T
C1169      C1170   1.408       .  A
C1169      C1174   1.413       .  A
C1170      C1171   1.409       .  A
C1170      C1175   1.450       .  S
C1171      C1172   1.412       .  A
C1171      C1178   1.450       .  S
C1172      C1173   1.408       .  A
C1173      C1174   1.406       .  A
C1173      C1176   1.451       .  S
C1174      C1177   1.451       .  S
C1175      N1182   1.157       .  T
C1176      N1181   1.157       .  T
C1177      N1179   1.157       .  T
C1178      N1180   1.157       .  T
C1183      C1184   1.413       .  A
C1183      C1188   1.417       .  A
C1184      C1185   1.418       .  A
C1184      C1189   1.449       .  S
C1185      C1186   1.422       .  A
C1185      C1192   1.453       .  S
C1186      C1187   1.412       .  A
C1187      C1188   1.421       .  A
C1187      C1190   1.450       .  S
C1188      C1191   1.446       .  S
C1189      N1196   1.156       .  T
C1190      N1195   1.157       .  T
C1191      N1193   1.156       .  T
C1192      N1194   1.158       .  T
C1197      C1198   1.413       .  A
C1197      C1202   1.410       .  A
C1198      C1199   1.408       .  A
C1198      C1203   1.442       .  S
C1199      C1200   1.408       .  A
C1199      C1206   1.453       .  S
C1200      C1201   1.417       .  A
C1201      C1202   1.407       .  A
C1201      C1204   1.453       .  S
C1202      C1205   1.449       .  S
C1203      N1210   1.154       .  T
C1204      N1209   1.158       .  T
C1205      N1207   1.156       .  T
C1206      N1208   1.157       .  T
C1211      C1212   1.421       .  A
C1211      C1216   1.436       .  A
C1212      C1213   1.417       .  A
C1212      C1217   1.453       .  S
C1213      C1214   1.426       .  A
C1213      C1220   1.455       .  S
C1214      C1215   1.413       .  A
C1215      C1216   1.425       .  A
C1215      C1218   1.451       .  S
C1216      C1219   1.453       .  S
C1217      N1224   1.158       .  T
C1218      N1223   1.158       .  T
C1219      N1221   1.158       .  T
C1220      N1222   1.158       .  T
C1225      C1226   1.413       .  A
C1225      C1230   1.419       .  A
C1226      C1227   1.421       .  A
C1226      C1231   1.450       .  S
C1227      C1228   1.421       .  A
C1227      C1234   1.447       .  S
C1228      C1229   1.414       .  A
C1229      C1230   1.418       .  A
C1229      C1232   1.449       .  S
C1230      C1233   1.450       .  S
C1231      N1238   1.157       .  T
C1232      N1237   1.156       .  T
C1233      N1235   1.157       .  T
C1234      N1236   1.156       .  T
C1239      C1240   1.413       .  A
C1239      C1244   1.410       .  A
C1240      C1241   1.399       .  A
C1240      C1245   1.448       .  S
C1241      C1242   1.404       .  A
C1241      C1248   1.453       .  S
C1242      C1243   1.409       .  A
C1243      C1244   1.410       .  A
C1243      C1246   1.450       .  S
C1244      C1247   1.447       .  S
C1245      N1252   1.156       .  T
C1246      N1251   1.157       .  T
C1247      N1249   1.157       .  T
C1248      N1250   1.157       .  T
C1253      C1254   1.418       .  A
C1253      C1258   1.410       .  A
C1254      C1255   1.416       .  A
C1254      C1259   1.452       .  S
C1255      C1256   1.414       .  A
C1255      C1262   1.448       .  S
C1256      C1257   1.418       .  A
C1257      C1258   1.417       .  A
C1257      C1260   1.445       .  S
C1258      C1261   1.451       .  S
C1259      N1266   1.157       .  T
C1260      N1265   1.154       .  T
C1261      N1263   1.157       .  T
C1262      N1264   1.156       .  T
C1267      C1268   1.412       .  A
C1267      C1272   1.417       .  A
C1268      C1269   1.404       .  A
C1268      C1273   1.451       .  S
C1269      C1270   1.407       .  A
C1269      C1276   1.450       .  S
C1270      C1271   1.407       .  A
C1271      C1272   1.410       .  A
C1271      C1274   1.452       .  S
C1272      C1275   1.449       .  S
C1273      N1280   1.157       .  T
C1274      N1279   1.158       .  T
C1275      N1277   1.157       .  T
C1276      N1278   1.156       .  T
C1281      C1282   1.407       .  A
C1281      C1286   1.407   1_545  A
C1282      C1283   1.408   1_545  A
C1282      C1287   1.450       .  S
C1283      C1284   1.408       .  A
C1283      C1290   1.448       .  S
C1284      C1285   1.412       .  A
C1285      C1286   1.389       .  A
C1285      C1288   1.456       .  S
C1286      C1289   1.456   1_565  S
C1287      N1294   1.157       .  T
C1288      N1293   1.157       .  T
C1289      N1291   1.157       .  T
C1290      N1292   1.157       .  T
C1295      C1296   1.412       .  A
C1295      C1300   1.404       .  A
C1296      C1297   1.404       .  A
C1296      C1301   1.451       .  S
C1297      C1298   1.407       .  A
C1297      C1304   1.450       .  S
C1298      C1299   1.409       .  A
C1299      C1300   1.398       .  A
C1299      C1302   1.447       .  S
C1300      C1303   1.452       .  S
C1301      N1308   1.157       .  T
C1302      N1307   1.156       .  T
C1303      N1305   1.157       .  T
C1304      N1306   1.157       .  T
C1309      C1310   1.413       .  A
C1309      C1314   1.408       .  A
C1310      C1311   1.405       .  A
C1310      C1315   1.451       .  S
C1311      C1312   1.407       .  A
C1311      C1318   1.452       .  S
C1312      C1313   1.409       .  A
C1313      C1314   1.398       .  A
C1313      C1316   1.452       .  S
C1314      C1317   1.452       .  S
C1315      N1322   1.157       .  T
C1316      N1321   1.156       .  T
C1317      N1319   1.157       .  T
C1318      N1320   1.158       .  T
C1323      C1324   1.412       .  A
C1323      C1328   1.421       .  A
C1324      C1325   1.424       .  A
C1324      C1329   1.451       .  S
C1325      C1326   1.431       .  A
C1325      C1332   1.451       .  S
C1326      C1327   1.418       .  A
C1327      C1328   1.421       .  A
C1327      C1330   1.451       .  S
C1328      C1331   1.452       .  S
C1329      N1336   1.157       .  T
C1330      N1335   1.157       .  T
C1331      N1333   1.157       .  T
C1332      N1334   1.157       .  T
C1337      C1338   1.416       .  A
C1337      C1342   1.427       .  A
C1338      C1339   1.424       .  A
C1338      C1343   1.450       .  S
C1339      C1340   1.426       .  A
C1339      C1346   1.451       .  S
C1340      C1341   1.414       .  A
C1341      C1342   1.417       .  A
C1341      C1344   1.451       .  S
C1342      C1345   1.453       .  S
C1343      N1350   1.157       .  T
C1344      N1349   1.157       .  T
C1345      N1347   1.158       .  T
C1346      N1348   1.157       .  T
C1351      C1352   1.416       .  A
C1351      C1356   1.416       .  A
C1352      C1353   1.415       .  A
C1352      C1357   1.448       .  S
C1353      C1354   1.410       .  A
C1353      C1360   1.451       .  S
C1354      C1355   1.414       .  A
C1355      C1356   1.420       .  A
C1355      C1358   1.450       .  S
C1356      C1359   1.450       .  S
C1357      N1364   1.156       .  T
C1358      N1363   1.157       .  T
C1359      N1361   1.157       .  T
C1360      N1362   1.157       .  T
C1365      C1366   1.417       .  A
C1365      C1370   1.410       .  A
C1366      C1367   1.407       .  A
C1366      C1371   1.452       .  S
C1367      C1368   1.410       .  A
C1367      C1374   1.450       .  S
C1368      C1369   1.408       .  A
C1369      C1370   1.403       .  A
C1369      C1372   1.443       .  S
C1370      C1373   1.451       .  S
C1371      N1378   1.157       .  T
C1372      N1377   1.154       .  T
C1373      N1375   1.157       .  T
C1374      N1376   1.156       .  T
C1379      C1380   1.426       .  A
C1379      C1384   1.416       .  A
C1380      C1381   1.423       .  A
C1380      C1385   1.452       .  S
C1381      C1382   1.417       .  A
C1381      C1388   1.451       .  S
C1382      C1383   1.428       .  A
C1383      C1384   1.416       .  A
C1383      C1386   1.455       .  S
C1384      C1387   1.453       .  S
C1385      N1392   1.158       .  T
C1386      N1391   1.158       .  T
C1387      N1389   1.158       .  T
C1388      N1390   1.158       .  T
C1393      C1394   1.414       .  A
C1393      C1398   1.426       .  A
C1394      C1395   1.412       .  A
C1394      C1399   1.453       .  S
C1395      C1396   1.420       .  A
C1395      C1402   1.451       .  S
C1396      C1397   1.405       .  A
C1397      C1398   1.400       .  A
C1397      C1400   1.457       .  S
C1398      C1401   1.453       .  S
C1399      N1406   1.158       .  T
C1400      N1405   1.157       .  T
C1401      N1403   1.157       .  T
C1402      N1404   1.158       .  T
C1407      C1408   1.404       .  A
C1407      C1412   1.410       .  A
C1408      C1409   1.409       .  A
C1408      C1413   1.448       .  S
C1409      C1410   1.424       .  A
C1409      C1416   1.450       .  S
C1410      C1411   1.419       .  A
C1411      C1412   1.407       .  A
C1411      C1414   1.450       .  S
C1412      C1415   1.450       .  S
C1413      N1420   1.157       .  T
C1414      N1419   1.157       .  T
C1415      N1417   1.157       .  T
C1416      N1418   1.158       .  T
C1421      C1422   1.420       .  A
C1421      C1426   1.421       .  A
C1422      C1423   1.412       .  A
C1422      C1427   1.449       .  S
C1423      C1424   1.416       .  A
C1423      C1430   1.452       .  S
C1424      C1425   1.416       .  A
C1425      C1426   1.404       .  A
C1425      C1428   1.455       .  S
C1426      C1429   1.454       .  S
C1427      N1434   1.157       .  T
C1428      N1433   1.158       .  T
C1429      N1431   1.158       .  T
C1430      N1432   1.158       .  T
C1435      C1436   1.408       .  A
C1435      C1440   1.410       .  A
C1436      C1437   1.404       .  A
C1436      C1441   1.451       .  S
C1437      C1438   1.411       .  A
C1437      C1444   1.452       .  S
C1438      C1439   1.409       .  A
C1439      C1440   1.408       .  A
C1439      C1442   1.448       .  S
C1440      C1443   1.451       .  S
C1441      N1448   1.157       .  T
C1442      N1447   1.156       .  T
C1443      N1445   1.157       .  T
C1444      N1446   1.157       .  T
C1449      C1450   1.421       .  A
C1449      C1454   1.411       .  A
C1450      C1451   1.420       .  A
C1450      C1455   1.453       .  S
C1451      C1452   1.418       .  A
C1451      C1458   1.450       .  S
C1452      C1453   1.428       .  A
C1453      C1454   1.422       .  A
C1453      C1456   1.449       .  S
C1454      C1457   1.452       .  S
C1455      N1462   1.158       .  T
C1456      N1461   1.157       .  T
C1457      N1459   1.158       .  T
C1458      N1460   1.157       .  T
C1463      C1464   1.413       .  A
C1463      C1468   1.421       .  A
C1464      C1465   1.422       .  A
C1464      C1469   1.450       .  S
C1465      C1466   1.420       .  A
C1465      C1472   1.450       .  S
C1466      C1467   1.412       .  A
C1467      C1468   1.418       .  A
C1467      C1470   1.450       .  S
C1468      C1471   1.451       .  S
C1469      N1476   1.157       .  T
C1470      N1475   1.157       .  T
C1471      N1473   1.157       .  T
C1472      N1474   1.157       .  T
C1477      C1478   1.412       .  A
C1477      C1482   1.412       .  A
C1478      C1479   1.402       .  A
C1478      C1483   1.457       .  S
C1479      C1480   1.425       .  A
C1479      C1486   1.454       .  S
C1480      C1481   1.423       .  A
C1481      C1482   1.412       .  A
C1481      C1484   1.454       .  S
C1482      C1485   1.450       .  S
C1483      N1490   1.157       .  T
C1484      N1489   1.158       .  T
C1485      N1487   1.157       .  T
C1486      N1488   1.158       .  T
C1491      C1492   1.423       .  A
C1491      C1496   1.406       .  A
C1492      C1493   1.412       .  A
C1492      C1497   1.451       .  S
C1493      C1494   1.411       .  A
C1493      C1500   1.453       .  S
C1494      C1495   1.429       .  A
C1495      C1496   1.403       .  A
C1495      C1498   1.453       .  S
C1496      C1499   1.457   1_655  S
C1497      N1504   1.157       .  T
C1498      N1503   1.157       .  T
C1499      N1501   1.158       .  T
C1500      N1502   1.157       .  T
C1505      C1506   1.427       .  A
C1505      C1510   1.417       .  A
C1506      C1507   1.423       .  A
C1506      C1511   1.450       .  S
C1507      C1508   1.411       .  A
C1507      C1514   1.450       .  S
C1508      C1509   1.418       .  A
C1509      C1510   1.418       .  A
C1509      C1512   1.453       .  S
C1510      C1513   1.449       .  S
C1511      N1518   1.157       .  T
C1512      N1517   1.157       .  T
C1513      N1515   1.156       .  T
C1514      N1516   1.157       .  T
C1519      C1520   1.424       .  A
C1519      C1524   1.414       .  A
C1520      C1521   1.417       .  A
C1520      C1525   1.453   1_655  S
C1521      C1522   1.410       .  A
C1521      C1528   1.448       .  S
C1522      C1523   1.416       .  A
C1523      C1524   1.422       .  A
C1523      C1526   1.447       .  S
C1524      C1527   1.448       .  S
C1525      N1532   1.158       .  T
C1526      N1531   1.156       .  T
C1527      N1529   1.157       .  T
C1528      N1530   1.158       .  T
C1533      C1534   1.411       .  A
C1533      C1538   1.411       .  A
C1534      C1535   1.410       .  A
C1534      C1539   1.449       .  S
C1535      C1536   1.411       .  A
C1535      C1542   1.450       .  S
C1536      C1537   1.407       .  A
C1537      C1538   1.403       .  A
C1537      C1540   1.451       .  S
C1538      C1541   1.452       .  S
C1539      N1546   1.157       .  T
C1540      N1545   1.157       .  T
C1541      N1543   1.157       .  T
C1542      N1544   1.157   1_655  T
C1547      C1548   1.412       .  A
C1547      C1552   1.411       .  A
C1548      C1549   1.408       .  A
C1548      C1553   1.450       .  S
C1549      C1550   1.408       .  A
C1549      C1556   1.447       .  S
C1550      C1551   1.412       .  A
C1551      C1552   1.409       .  A
C1551      C1554   1.451       .  S
C1552      C1555   1.451       .  S
C1553      N1560   1.157       .  T
C1554      N1559   1.157       .  T
C1555      N1557   1.157       .  T
C1556      N1558   1.155       .  T
C1561      C1562   1.414       .  A
C1561      C1566   1.421       .  A
C1562      C1563   1.420       .  A
C1562      C1567   1.451       .  S
C1563      C1564   1.424       .  A
C1563      C1570   1.452   1_655  S
C1564      C1565   1.417       .  A
C1565      C1566   1.425       .  A
C1565      C1568   1.449       .  S
C1566      C1569   1.449       .  S
C1567      N1574   1.157       .  T
C1568      N1573   1.157       .  T
C1569      N1571   1.156       .  T
C1570      N1572   1.157       .  T
C1575      C1576   1.412       .  A
C1575      C1580   1.415       .  A
C1576      C1577   1.417       .  A
C1576      C1581   1.450       .  S
C1577      C1578   1.413       .  A
C1577      C1584   1.445       .  S
C1578      C1579   1.417       .  A
C1579      C1580   1.423       .  A
C1579      C1582   1.450       .  S
C1580      C1583   1.449       .  S
C1581      N1588   1.157       .  T
C1582      N1587   1.157       .  T
C1583      N1585   1.157       .  T
C1584      N1586   1.155       .  T
C1589      C1590   1.416       .  A
C1589      C1594   1.412       .  A
C1590      C1591   1.409       .  A
C1590      C1595   1.451   1_455  S
C1591      C1592   1.418       .  A
C1591      C1598   1.451   1_455  S
C1592      C1593   1.414       .  A
C1593      C1594   1.408       .  A
C1593      C1596   1.451       .  S
C1594      C1597   1.446       .  S
C1595      N1602   1.158       .  T
C1596      N1601   1.157       .  T
C1597      N1599   1.156       .  T
C1598      N1600   1.158       .  T
C1603      C1604   1.409       .  A
C1603      C1608   1.419       .  A
C1604      C1605   1.404       .  A
C1604      C1609   1.447       .  S
C1605      C1606   1.412       .  A
C1605      C1612   1.447       .  S
C1606      C1607   1.413       .  A
C1607      C1608   1.408       .  A
C1607      C1610   1.449       .  S
C1608      C1611   1.454       .  S
C1609      N1616   1.157       .  T
C1610      N1615   1.157       .  T
C1611      N1613   1.158       .  T
C1612      N1614   1.156       .  T
C1617      C1618   1.412       .  A
C1617      C1622   1.405       .  A
C1618      C1619   1.412       .  A
C1618      C1623   1.451       .  S
C1619      C1620   1.419       .  A
C1619      C1626   1.452       .  S
C1620      C1621   1.431       .  A
C1621      C1622   1.402       .  A
C1621      C1624   1.455       .  S
C1622      C1625   1.457   1_655  S
C1623      N1630   1.157       .  T
C1624      N1629   1.158       .  T
C1625      N1627   1.157       .  T
C1626      N1628   1.158       .  T
C1631      C1632   1.419       .  A
C1631      C1636   1.408       .  A
C1632      C1633   1.415       .  A
C1632      C1637   1.452       .  S
C1633      C1634   1.415       .  A
C1633      C1640   1.452       .  S
C1634      C1635   1.431       .  A
C1635      C1636   1.414       .  A
C1635      C1638   1.454       .  S
C1636      C1639   1.452       .  S
C1637      N1644   1.157       .  T
C1638      N1643   1.158       .  T
C1639      N1641   1.157       .  T
C1640      N1642   1.157       .  T
C1645      C1646   1.412       .  A
C1645      C1650   1.426   1_655  A
C1646      C1647   1.420       .  A
C1646      C1651   1.451       .  S
C1647      C1648   1.430       .  A
C1647      C1654   1.451       .  S
C1648      C1649   1.415       .  A
C1649      C1650   1.418   1_655  A
C1649      C1652   1.452       .  S
C1650      C1653   1.453       .  S
C1651      N1658   1.158       .  T
C1652      N1657   1.157       .  T
C1653      N1655   1.158       .  T
C1654      N1656   1.158       .  T
C1659      C1660   1.407       .  A
C1659      C1664   1.409       .  A
C1660      C1661   1.391       .  A
C1660      C1665   1.455       .  S
C1661      C1662   1.414       .  A
C1661      C1668   1.457       .  S
C1662      C1663   1.405       .  A
C1663      C1664   1.407       .  A
C1663      C1666   1.449       .  S
C1664      C1667   1.448       .  S
C1665      N1672   1.157       .  T
C1666      N1671   1.157       .  T
C1667      N1669   1.157       .  T
C1668      N1670   1.158       .  T
C1673      C1674   1.419       .  A
C1673      C1678   1.404       .  A
C1674      C1675   1.416       .  A
C1674      C1679   1.451       .  S
C1675      C1676   1.419       .  A
C1675      C1682   1.453       .  S
C1676      C1677   1.426       .  A
C1677      C1678   1.403       .  A
C1677      C1680   1.453       .  S
C1678      C1681   1.452       .  S
C1679      N1686   1.157       .  T
C1680      N1685   1.157       .  T
C1681      N1683   1.156       .  T
C1682      N1684   1.158       .  T
C1687      C1688   1.414       .  A
C1687      C1692   1.400       .  A
C1688      C1689   1.413       .  A
C1688      C1693   1.450       .  S
C1689      C1690   1.417       .  A
C1689      C1696   1.451       .  S
C1690      C1691   1.425       .  A
C1691      C1692   1.404       .  A
C1691      C1694   1.449       .  S
C1692      C1695   1.452   1_655  S
C1693      N1700   1.157       .  T
C1694      N1699   1.156       .  T
C1695      N1697   1.157       .  T
C1696      N1698   1.157       .  T
C1701      C1702   1.428       .  A
C1701      C1706   1.417       .  A
C1702      C1703   1.426       .  A
C1702      C1707   1.452       .  S
C1703      C1704   1.419       .  A
C1703      C1710   1.451       .  S
C1704      C1705   1.430       .  A
C1705      C1706   1.419       .  A
C1705      C1708   1.454       .  S
C1706      C1709   1.454       .  S
C1707      N1714   1.158       .  T
C1708      N1713   1.158       .  T
C1709      N1711   1.157       .  T
C1710      N1712   1.158       .  T
C1715      C1716   1.413       .  A
C1715      C1720   1.418       .  A
C1716      C1717   1.422       .  A
C1716      C1721   1.451       .  S
C1717      C1718   1.427       .  A
C1717      C1724   1.451       .  S
C1718      C1719   1.419       .  A
C1719      C1720   1.416       .  A
C1719      C1722   1.450       .  S
C1720      C1723   1.453   1_655  S
C1721      N1728   1.158       .  T
C1722      N1727   1.157       .  T
C1723      N1725   1.157       .  T
C1724      N1726   1.157       .  T
C1729      C1730   1.426       .  A
C1729      C1734   1.419       .  A
C1730      C1731   1.402       .  A
C1730      C1735   1.452       .  S
C1731      C1732   1.404       .  A
C1731      C1738   1.456       .  S
C1732      C1733   1.410       .  A
C1733      C1734   1.412       .  A
C1733      C1736   1.451       .  S
C1734      C1737   1.452       .  S
C1735      N1742   1.157       .  T
C1736      N1741   1.157       .  T
C1737      N1739   1.158       .  T
C1738      N1740   1.157       .  T
C1743      C1744   1.410       .  A
C1743      C1748   1.413       .  A
C1744      C1745   1.411       .  A
C1744      C1749   1.452       .  S
C1745      C1746   1.414       .  A
C1745      C1752   1.449       .  S
C1746      C1747   1.409       .  A
C1747      C1748   1.413       .  A
C1747      C1750   1.449       .  S
C1748      C1751   1.450       .  S
C1749      N1756   1.157       .  T
C1750      N1755   1.157       .  T
C1751      N1753   1.157       .  T
C1752      N1754   1.156       .  T
C1757      C1758   1.427       .  A
C1757      C1762   1.418       .  A
C1758      C1759   1.422       .  A
C1758      C1763   1.450       .  S
C1759      C1760   1.412       .  A
C1759      C1766   1.451       .  S
C1760      C1761   1.419       .  A
C1761      C1762   1.420       .  A
C1761      C1764   1.452       .  S
C1762      C1765   1.449       .  S
C1763      N1770   1.157       .  T
C1764      N1769   1.157       .  T
C1765      N1767   1.157       .  T
C1766      N1768   1.157       .  T
C1771      C1772   1.430       .  A
C1771      C1776   1.416       .  A
C1772      C1773   1.422       .  A
C1772      C1777   1.453       .  S
C1773      C1774   1.417       .  A
C1773      C1780   1.453       .  S
C1774      C1775   1.427       .  A
C1775      C1776   1.428       .  A
C1775      C1778   1.450       .  S
C1776      C1779   1.449       .  S
C1777      N1784   1.158       .  T
C1778      N1783   1.157       .  T
C1779      N1781   1.157       .  T
C1780      N1782   1.158       .  T
C1785      C1786   1.410       .  A
C1785      C1790   1.415       .  A
C1786      C1787   1.405       .  A
C1786      C1791   1.451       .  S
C1787      C1788   1.408       .  A
C1787      C1794   1.446       .  S
C1788      C1789   1.407       .  A
C1789      C1790   1.409       .  A
C1789      C1792   1.450       .  S
C1790      C1793   1.451       .  S
C1791      N1798   1.157       .  T
C1792      N1797   1.157       .  T
C1793      N1795   1.157       .  T
C1794      N1796   1.154       .  T
C1799      C1800   1.410       .  A
C1799      C1804   1.403       .  A
C1800      C1801   1.410       .  A
C1800      C1805   1.451       .  S
C1801      C1802   1.418       .  A
C1801      C1808   1.451       .  S
C1802      C1803   1.430       .  A
C1803      C1804   1.403       .  A
C1803      C1806   1.455       .  S
C1804      C1807   1.456       .  S
C1805      N1812   1.157       .  T
C1806      N1811   1.158       .  T
C1807      N1809   1.158       .  T
C1808      N1810   1.157       .  T
C1813      C1814   1.412       .  A
C1813      C1818   1.414       .  A
C1814      C1815   1.419       .  A
C1814      C1819   1.450       .  S
C1815      C1816   1.418       .  A
C1815      C1822   1.446       .  S
C1816      C1817   1.415       .  A
C1817      C1818   1.418       .  A
C1817      C1820   1.448       .  S
C1818      C1821   1.450       .  S
C1819      N1826   1.157       .  T
C1820      N1825   1.156       .  T
C1821      N1823   1.157       .  T
C1822      N1824   1.155       .  T
C1827      C1828   1.417       .  A
C1827      C1832   1.411       .  A
C1828      C1829   1.422       .  A
C1828      C1833   1.449       .  S
C1829      C1830   1.415       .  A
C1829      C1836   1.448       .  S
C1830      C1831   1.420       .  A
C1831      C1832   1.420       .  A
C1831      C1834   1.444       .  S
C1832      C1835   1.451       .  S
C1833      N1840   1.157       .  T
C1834      N1839   1.155       .  T
C1835      N1837   1.157       .  T
C1836      N1838   1.157       .  T
C1841      C1842   1.398       .  A
C1841      C1846   1.409       .  A
C1842      C1843   1.396       .  A
C1842      C1847   1.452       .  S
C1843      C1844   1.424       .  A
C1843      C1850   1.452       .  S
C1844      C1845   1.420       .  A
C1845      C1846   1.413       .  A
C1845      C1848   1.451       .  S
C1846      C1849   1.450       .  S
C1847      N1854   1.157       .  T
C1848      N1853   1.158       .  T
C1849      N1851   1.157       .  T
C1850      N1852   1.157       .  T
C1855      C1856   1.416       .  A
C1855      C1860   1.406       .  A
C1856      C1857   1.415       .  A
C1856      C1861   1.450       .  S
C1857      C1858   1.415       .  A
C1857      C1864   1.451       .  S
C1858      C1859   1.429       .  A
C1859      C1860   1.400       .  A
C1859      C1862   1.459       .  S
C1860      C1863   1.452       .  S
C1861      N1868   1.157       .  T
C1862      N1867   1.158       .  T
C1863      N1865   1.156       .  T
C1864      N1866   1.158       .  T
C1869      C1870   1.411       .  A
C1869      C1874   1.417       .  A
C1870      C1871   1.419       .  A
C1870      C1875   1.450       .  S
C1871      C1872   1.425       .  A
C1871      C1878   1.451       .  S
C1872      C1873   1.418       .  A
C1873      C1874   1.416       .  A
C1873      C1876   1.449       .  S
C1874      C1877   1.453       .  S
C1875      N1882   1.157       .  T
C1876      N1881   1.156       .  T
C1877      N1879   1.158       .  T
C1878      N1880   1.157       .  T
C1883      C1884   1.413       .  A
C1883      C1888   1.427       .  A
C1884      C1885   1.422       .  A
C1884      C1889   1.450       .  S
C1885      C1886   1.423       .  A
C1885      C1892   1.450       .  S
C1886      C1887   1.415       .  A
C1887      C1888   1.419       .  A
C1887      C1890   1.451       .  S
C1888      C1891   1.454       .  S
C1889      N1896   1.157       .  T
C1890      N1895   1.157       .  T
C1891      N1893   1.158       .  T
C1892      N1894   1.157       .  T
C1897      C1898   1.407       .  A
C1897      C1902   1.411       .  A
C1898      C1899   1.410       .  A
C1898      C1903   1.450       .  S
C1899      C1900   1.415       .  A
C1899      C1906   1.451       .  S
C1900      C1901   1.408       .  A
C1901      C1902   1.408       .  A
C1901      C1904   1.447       .  S
C1902      C1905   1.451       .  S
C1903      N1910   1.157       .  T
C1904      N1909   1.157       .  T
C1905      N1907   1.157       .  T
C1906      N1908   1.157       .  T
C1911      C1912   1.416       .  A
C1911      C1916   1.412       .  A
C1912      C1913   1.408       .  A
C1912      C1917   1.452       .  S
C1913      C1914   1.419       .  A
C1913      C1920   1.451       .  S
C1914      C1915   1.413       .  A
C1915      C1916   1.408       .  A
C1915      C1918   1.449       .  S
C1916      C1919   1.446       .  S
C1917      N1924   1.158       .  T
C1918      N1923   1.157       .  T
C1919      N1921   1.155       .  T
C1920      N1922   1.157       .  T
C1925      C1926   1.413       .  A
C1925      C1930   1.422       .  A
C1926      C1927   1.422       .  A
C1926      C1931   1.449       .  S
C1927      C1928   1.420       .  A
C1927      C1934   1.448       .  S
C1928      C1929   1.411       .  A
C1929      C1930   1.418       .  A
C1929      C1932   1.449       .  S
C1930      C1933   1.451       .  S
C1931      N1938   1.157   1_655  T
C1932      N1937   1.156       .  T
C1933      N1935   1.157       .  T
C1934      N1936   1.156       .  T
C1939      C1940   1.412       .  A
C1939      C1944   1.419       .  A
C1940      C1941   1.420       .  A
C1940      C1945   1.450       .  S
C1941      C1942   1.425       .  A
C1941      C1948   1.451       .  S
C1942      C1943   1.418       .  A
C1943      C1944   1.417       .  A
C1943      C1946   1.451       .  S
C1944      C1947   1.453       .  S
C1945      N1952   1.157   1_655  T
C1946      N1951   1.157       .  T
C1947      N1949   1.157       .  T
C1948      N1950   1.157       .  T
C1953      C1954   1.416       .  A
C1953      C1958   1.418   1_565  A
C1954      C1955   1.409       .  A
C1954      C1959   1.449       .  S
C1955      C1956   1.418       .  A
C1955      C1962   1.453       .  S
C1956      C1957   1.414   1_565  A
C1957      C1958   1.406       .  A
C1957      C1960   1.450       .  S
C1958      C1961   1.452       .  S
C1959      N1966   1.157       .  T
C1960      N1965   1.157       .  T
C1961      N1963   1.157       .  T
C1962      N1964   1.158       .  T
C1967      C1968   1.409       .  A
C1967      C1972   1.408       .  A
C1968      C1969   1.404       .  A
C1968      C1973   1.451       .  S
C1969      C1970   1.409       .  A
C1969      C1976   1.449       .  S
C1970      C1971   1.414       .  A
C1971      C1972   1.409       .  A
C1971      C1974   1.451       .  S
C1972      C1975   1.450       .  S
C1973      N1980   1.158       .  T
C1974      N1979   1.157       .  T
C1975      N1977   1.157       .  T
C1976      N1978   1.157       .  T
C1981      C1982   1.422       .  A
C1981      C1986   1.416       .  A
C1982      C1983   1.408       .  A
C1982      C1987   1.451       .  S
C1983      C1984   1.410       .  A
C1983      C1990   1.452       .  S
C1984      C1985   1.411       .  A
C1985      C1986   1.414       .  A
C1985      C1988   1.444       .  S
C1986      C1989   1.452       .  S
C1987      N1994   1.157       .  T
C1988      N1993   1.154       .  T
C1989      N1991   1.158       .  T
C1990      N1992   1.156       .  T
C1995      C1996   1.416       .  A
C1995      C2000   1.414       .  A
C1996      C1997   1.418       .  A
C1996      C2001   1.448       .  S
C1997      C1998   1.412       .  A
C1997      C2004   1.451       .  S
C1998      C1999   1.415       .  A
C1999      C2000   1.421       .  A
C1999      C2002   1.447       .  S
C2000      C2003   1.450       .  S
C2001      N2008   1.157       .  T
C2002      N2007   1.156       .  T
C2003      N2005   1.157       .  T
C2004      N2006   1.157       .  T
C2009      C2010   1.414       .  A
C2009      C2014   1.424       .  A
C2010      C2011   1.426       .  A
C2010      C2015   1.451       .  S
C2011      C2012   1.433       .  A
C2011      C2018   1.451       .  S
C2012      C2013   1.419       .  A
C2013      C2014   1.425       .  A
C2013      C2016   1.448       .  S
C2014      C2017   1.452       .  S
C2015      N2022   1.157       .  T
C2016      N2021   1.156       .  T
C2017      N2019   1.157       .  T
C2018      N2020   1.157       .  T
C2023      C2024   1.417   1_565  A
C2023      C2028   1.416       .  A
C2024      C2025   1.408       .  A
C2024      C2029   1.453       .  S
C2025      C2026   1.419   1_545  A
C2025      C2032   1.451       .  S
C2026      C2027   1.413       .  A
C2027      C2028   1.406       .  A
C2027      C2030   1.452       .  S
C2028      C2031   1.447       .  S
C2029      N2036   1.158       .  T
C2030      N2035   1.157       .  T
C2031      N2033   1.156       .  T
C2032      N2034   1.158       .  T
C2037      C2038   1.410       .  A
C2037      C2042   1.401       .  A
C2038      C2039   1.413       .  A
C2038      C2043   1.451       .  S
C2039      C2040   1.419       .  A
C2039      C2046   1.451       .  S
C2040      C2041   1.426       .  A
C2041      C2042   1.402       .  A
C2041      C2044   1.450       .  S
C2042      C2045   1.456       .  S
C2043      N2050   1.157       .  T
C2044      N2049   1.156       .  T
C2045      N2047   1.157       .  T
C2046      N2048   1.158       .  T
C2051      C2052   1.422       .  A
C2051      C2056   1.410       .  A
C2052      C2053   1.409       .  A
C2052      C2057   1.451       .  S
C2053      C2054   1.405       .  A
C2053      C2060   1.450       .  S
C2054      C2055   1.401       .  A
C2055      C2056   1.397       .  A
C2055      C2058   1.443       .  S
C2056      C2059   1.448       .  S
C2057      N2064   1.158       .  T
C2058      N2063   1.156       .  T
C2059      N2061   1.157       .  T
C2060      N2062   1.157       .  T
C2065      C2066   1.411       .  A
C2065      C2070   1.422       .  A
C2066      C2067   1.424       .  A
C2066      C2071   1.452       .  S
C2067      C2068   1.434       .  A
C2067      C2074   1.451       .  S
C2068      C2069   1.420       .  A
C2069      C2070   1.417       .  A
C2069      C2072   1.452       .  S
C2070      C2073   1.454       .  S
C2071      N2078   1.158       .  T
C2072      N2077   1.158       .  T
C2073      N2075   1.158   1_545  T
C2074      N2076   1.157       .  T
C2079      C2080   1.418       .  A
C2079      C2084   1.430       .  A
C2080      C2081   1.425       .  A
C2080      C2085   1.450       .  S
C2081      C2082   1.425       .  A
C2081      C2088   1.451       .  S
C2082      C2083   1.415       .  A
C2083      C2084   1.414       .  A
C2083      C2086   1.453       .  S
C2084      C2087   1.455       .  S
C2085      N2092   1.158       .  T
C2086      N2091   1.158       .  T
C2087      N2089   1.158       .  T
C2088      N2090   1.157       .  T
C2093      C2094   1.414       .  A
C2093      C2098   1.418   1_556  A
C2094      C2095   1.408       .  A
C2094      C2099   1.449       .  S
C2095      C2096   1.421       .  A
C2095      C2102   1.453       .  S
C2096      C2097   1.416   1_556  A
C2097      C2098   1.409       .  A
C2097      C2100   1.450       .  S
C2098      C2101   1.452       .  S
C2099      N2106   1.157       .  T
C2100      N2105   1.157       .  T
C2101      N2103   1.158       .  T
C2102      N2104   1.158       .  T
C2107      C2108   1.410       .  A
C2107      C2112   1.406       .  A
C2108      C2109   1.415       .  A
C2108      C2113   1.450       .  S
C2109      C2110   1.419       .  A
C2109      C2116   1.451       .  S
C2110      C2111   1.423       .  A
C2111      C2112   1.406       .  A
C2111      C2114   1.452       .  S
C2112      C2115   1.455       .  S
C2113      N2120   1.157       .  T
C2114      N2119   1.157       .  T
C2115      N2117   1.157       .  T
C2116      N2118   1.157       .  T
C2121      C2122   1.406       .  A
C2121      C2126   1.409       .  A
C2122      C2123   1.404       .  A
C2122      C2127   1.452       .  S
C2123      C2124   1.413       .  A
C2123      C2130   1.450       .  S
C2124      C2125   1.410       .  A
C2125      C2126   1.408       .  A
C2125      C2128   1.448       .  S
C2126      C2129   1.450       .  S
C2127      N2134   1.157       .  T
C2128      N2133   1.157       .  T
C2129      N2131   1.157       .  T
C2130      N2132   1.156       .  T
C2135      C2136   1.415       .  A
C2135      C2140   1.427       .  A
C2136      C2137   1.422       .  A
C2136      C2141   1.451   1_655  S
C2137      C2138   1.425       .  A
C2137      C2144   1.451       .  S
C2138      C2139   1.414       .  A
C2139      C2140   1.418       .  A
C2139      C2142   1.452       .  S
C2140      C2143   1.453       .  S
C2141      N2148   1.158       .  T
C2142      N2147   1.158       .  T
C2143      N2145   1.158       .  T
C2144      N2146   1.157       .  T
C2149      C2150   1.418       .  A
C2149      C2154   1.409       .  A
C2150      C2151   1.419       .  A
C2150      C2155   1.451       .  S
C2151      C2152   1.415       .  A
C2151      C2158   1.449       .  S
C2152      C2153   1.430       .  A
C2153      C2154   1.420       .  A
C2153      C2156   1.450       .  S
C2154      C2157   1.452       .  S
C2155      N2162   1.157       .  T
C2156      N2161   1.157       .  T
C2157      N2159   1.157   1_655  T
C2158      N2160   1.156       .  T
C2163      C2164   1.415       .  A
C2163      C2168   1.415   1_554  A
C2164      C2165   1.405       .  A
C2164      C2169   1.451       .  S
C2165      C2166   1.414   1_554  A
C2165      C2172   1.451       .  S
C2166      C2167   1.413       .  A
C2167      C2168   1.406       .  A
C2167      C2170   1.449       .  S
C2168      C2171   1.451       .  S
C2169      N2176   1.158       .  T
C2170      N2175   1.157       .  T
C2171      N2173   1.157       .  T
C2172      N2174   1.157       .  T
C2177      C2178   1.409       .  A
C2177      C2182   1.403       .  A
C2178      C2179   1.412       .  A
C2178      C2183   1.449       .  S
C2179      C2180   1.414       .  A
C2179      C2186   1.450       .  S
C2180      C2181   1.415       .  A
C2181      C2182   1.398       .  A
C2181      C2184   1.447       .  S
C2182      C2185   1.454       .  S
C2183      N2190   1.157       .  T
C2184      N2189   1.155       .  T
C2185      N2187   1.157       .  T
C2186      N2188   1.157       .  T
C2191      C2192   1.407       .  A
C2191      C2196   1.406       .  A
C2192      C2193   1.411       .  A
C2192      C2197   1.450       .  S
C2193      C2194   1.421       .  A
C2193      C2200   1.451       .  S
C2194      C2195   1.423       .  A
C2195      C2196   1.403       .  A
C2195      C2198   1.453       .  S
C2196      C2199   1.453       .  S
C2197      N2204   1.157       .  T
C2198      N2203   1.157       .  T
C2199      N2201   1.157       .  T
C2200      N2202   1.157       .  T
C2205      C2206   1.423       .  A
C2205      C2210   1.416       .  A
C2206      C2207   1.422       .  A
C2206      C2211   1.451       .  S
C2207      C2208   1.416       .  A
C2207      C2214   1.448       .  S
C2208      C2209   1.425       .  A
C2209      C2210   1.421       .  A
C2209      C2212   1.452       .  S
C2210      C2213   1.451       .  S
C2211      N2218   1.157       .  T
C2212      N2217   1.158       .  T
C2213      N2215   1.157       .  T
C2214      N2216   1.156       .  T
C2219      C2220   1.415       .  A
C2219      C2224   1.412       .  A
C2220      C2221   1.421       .  A
C2220      C2225   1.452       .  S
C2221      C2222   1.421       .  A
C2221      C2228   1.449       .  S
C2222      C2223   1.425       .  A
C2223      C2224   1.423       .  A
C2223      C2226   1.449       .  S
C2224      C2227   1.450       .  S
C2225      N2232   1.157       .  T
C2226      N2231   1.157       .  T
C2227      N2229   1.157       .  T
C2228      N2230   1.157       .  T
