geometry optimzed in LAMMPS
_audit_creation_date              2020-11-30 
_audit_creation_method            'lammps2cif' 
_symmetry_space_group_name_H-M    'P1' 
_symmetry_Int_Tables_number       1 
_symmetry_cell_setting            triclinic 
loop_ 
_symmetry_equiv_pos_as_xyz 
  x,y,z 
_cell_length_a                    34.00208532 
_cell_length_b                    33.9897768177915 
_cell_length_c                    83.28823112697424 
_cell_angle_alpha                 89.94996945231627 
_cell_angle_beta                  90.0033204328287 
_cell_angle_gamma                 120.01891888574708 
loop_ 
_atom_site_label 
_atom_site_type_symbol 
_atom_site_fract_x 
_atom_site_fract_y 
_atom_site_fract_z 
_atom_site_charge 
C1          C  0.65310315  0.09168291  0.71561295     0.80400
N2          N  0.69122203  0.10964053  0.70644828    -0.77900
C3          C  0.69317942  0.08588062  0.69350006     0.82800
N4          N  0.65691778  0.04402881  0.68989496    -0.77900
C5          C  0.61891117  0.02651000  0.69917453     0.82900
N6          N  0.61780343  0.05065905  0.71178080    -0.79600
C7          C  0.77807125  0.09768012  0.66304117     0.80400
N8          N  0.81302448  0.13882877  0.66696156    -0.77900
C9          C  0.81012205  0.16360142  0.67903275     0.82800
N10         N  0.77100881  0.14664440  0.68760802    -0.77900
C11         C  0.73512288  0.10482778  0.68387820     0.82900
N12         N  0.73865896  0.08036390  0.67149352    -0.79600
C13         C  0.50261389  0.76674097  0.82716161     0.80400
N14         N  0.51665355  0.74563567  0.83763821    -0.77900
C15         C  0.53794839  0.76695931  0.85154985     0.82800
N16         N  0.54418596  0.80910918  0.85503725    -0.77900
C17         C  0.52964773  0.82977757  0.84451101     0.82900
N18         N  0.50943672  0.80835141  0.83073893    -0.79600
C19         C  0.59061775  0.74518488  0.88693422     0.80400
N20         N  0.57630761  0.76614260  0.87649170    -0.77900
C21         C  0.55356766  0.74417690  0.86286280     0.82800
N22         N  0.54579255  0.70133335  0.85967913    -0.77900
C23         C  0.56027413  0.68068841  0.87023353     0.82900
N24         N  0.58226433  0.70290023  0.88367223    -0.79600
C25         C  0.82673005  0.42597401  0.49626352     0.80400
N26         N  0.84720949  0.40796858  0.50524730    -0.77900
C27         C  0.87213264  0.43092515  0.51841817     0.82800
N28         N  0.87651132  0.47190951  0.52249568    -0.77900
C29         C  0.85593641  0.48969458  0.51343961     0.82900
N30         N  0.83150152  0.46648877  0.50048750    -0.79600
C31         C  0.94315163  0.41852308  0.54945211     0.80400
N32         N  0.92073426  0.43537389  0.54098079    -0.77900
C33         C  0.89530198  0.41212802  0.52795099     0.82800
N34         N  0.89209739  0.37185744  0.52360169    -0.77900
C35         C  0.91489830  0.35547898  0.53210737     0.82900
N36         N  0.94014434  0.37909735  0.54482201    -0.79600
C37         C  0.43876210  0.42949937  0.99516196     0.80400
N38         N  0.47443917  0.46997063  0.99938992    -0.77900
C39         C  0.47285249  0.49328747  0.01225327     0.82800
N40         N  0.43411738  0.47573458  0.02113426    -0.77900
C41         C  0.39760497  0.43470757  0.01698214     0.82900
N42         N  0.40010808  0.41165035  0.00398407    -0.79600
C43         C  0.31121010  0.42182014  0.04682745     0.80400
N44         N  0.27540051  0.38199761  0.04207791    -0.77900
C45         C  0.27861679  0.35829334  0.02965067     0.82800
N46         N  0.31862514  0.37501753  0.02164257    -0.77900
C47         C  0.35497640  0.41563500  0.02613190     0.82900
N48         N  0.35127074  0.43888601  0.03882990    -0.79600
C49         C  0.98695228  0.75215240  0.38400223     0.80400
N50         N  0.02469097  0.77103889  0.37453622    -0.77900
C51         C  0.02554206  0.74899929  0.36085468     0.82800
N52         N  0.98841609  0.70836540  0.35674948    -0.77900
C53         C  0.95081329  0.69015255  0.36622099     0.82900
N54         N  0.95085929  0.71224592  0.37963532    -0.79600
C55         C  0.10465911  0.76577453  0.32725048     0.80400
N56         N  0.06740163  0.74658245  0.33694527    -0.77900
C57         C  0.06632968  0.76903440  0.35046264     0.82800
N58         N  0.10281468  0.81046722  0.35419755    -0.77900
C59         C  0.13995061  0.82921401  0.34448245     0.82900
N60         N  0.14016900  0.80667265  0.33120071    -0.79600
C61         C  0.15791652  0.09409486  0.16316122     0.80400
N62         N  0.17820075  0.07590514  0.17216239    -0.77900
C63         C  0.20247443  0.09830430  0.18552965     0.82800
N64         N  0.20619821  0.13890089  0.18981158    -0.77900
C65         C  0.18542857  0.15656841  0.18077777     0.82900
N66         N  0.16185083  0.13397665  0.16762514    -0.79600
C67         C  0.27455760  0.08501146  0.21608704     0.80400
N68         N  0.25227368  0.10246654  0.20780765    -0.77900
C69         C  0.22559021  0.07912597  0.19499064     0.82800
N70         N  0.22111548  0.03825900  0.19067271    -0.77900
C71         C  0.24359633  0.02118030  0.19900546     0.82900
N72         N  0.27002141  0.04488311  0.21149458    -0.79600
C73         C  0.04297277  0.69391057  0.83103001     0.80400
N74         N  0.05913772  0.73344394  0.83930863    -0.77900
C75         C  0.03479868  0.73623246  0.85189032     0.82800
N76         N  0.99418857  0.69929714  0.85607371    -0.77900
C77         C  0.97846048  0.65978580  0.84779868     0.82900
N78         N  0.00308013  0.65771418  0.83545116    -0.79600
C79         C  0.04842633  0.82005655  0.88313654     0.80400
N80         N  0.03009687  0.78130435  0.87424890    -0.77900
C81         C  0.05329702  0.77857630  0.86125901     0.82800
N82         N  0.09481953  0.81457663  0.85733891    -0.77900
C83         C  0.11297475  0.85299016  0.86633970     0.82900
N84         N  0.08955181  0.85512396  0.87905254    -0.79600
C85         C  0.71783628  0.66408300  0.66735890     0.80400
N86         N  0.73492574  0.64282807  0.67628263    -0.77900
C87         C  0.71030936  0.61569247  0.68876136     0.82800
N88         N  0.66806009  0.60919806  0.69206983    -0.77900
C89         C  0.65104735  0.63037525  0.68292557     0.82900
N90         N  0.67631914  0.65767593  0.67079342    -0.79600
C91         C  0.72445502  0.54645674  0.72003846     0.80400
N92         N  0.70637322  0.56733291  0.71133163    -0.77900
C93         C  0.72944075  0.59313200  0.69835035     0.82800
N94         N  0.77049476  0.59795118  0.69416902    -0.77900
C95         C  0.78828894  0.57703247  0.70297550     0.82900
N96         N  0.76501593  0.55162687  0.71574504    -0.79600
C97         C  0.37683057  0.35524383  0.49820902     0.80400
N98         N  0.39596975  0.39234084  0.50792219    -0.77900
C99         C  0.37378925  0.39307914  0.52152345     0.82800
N100        N  0.33253510  0.35652470  0.52533876    -0.77900
C101        C  0.31388584  0.31932832  0.51569638     0.82900
N102        N  0.33626378  0.31928394  0.50229225    -0.79600
C103        C  0.38990122  0.47271490  0.55466021     0.80400
N104        N  0.43299447  0.50598096  0.55177310    -0.77900
C105        C  0.45727260  0.50383947  0.53932861     0.82800
N106        N  0.43790898  0.46733047  0.52936855    -0.77900
C107        C  0.39451692  0.43304887  0.53216250     0.82900
N108        N  0.37045864  0.43582838  0.54485154    -0.79600
C109        C  0.37402527  0.98018604  0.99638679     0.80400
N110        N  0.33327099  0.97524432  0.00017246    -0.77900
C111        C  0.30966790  0.95136199  0.01313811     0.82800
N112        N  0.32733878  0.93162494  0.02271733    -0.77900
C113        C  0.36886261  0.93660249  0.01911765     0.82900
N114        N  0.39216257  0.96095930  0.00590807    -0.79600
C115        C  0.38384718  0.86981635  0.05128571     0.80400
N116        N  0.36507276  0.88925887  0.04213061    -0.77900
C117        C  0.38878157  0.91578191  0.02933207     0.82800
N118        N  0.43112100  0.92275496  0.02585677    -0.77900
C119        C  0.44947890  0.90320519  0.03513066     0.82900
N120        N  0.42554792  0.87708000  0.04763080    -0.79600
C121        C  0.05029591  0.19532709  0.38315541     0.80400
N122        N  0.03230421  0.21629660  0.37435368    -0.77900
C123        C  0.05560429  0.24228902  0.36135256     0.82800
N124        N  0.09678654  0.24708532  0.35730708    -0.77900
C125        C  0.11426436  0.22575817  0.36610973     0.82900
N126        N  0.09077988  0.20032098  0.37883388    -0.79600
C127        C  0.04158504  0.31006743  0.32918657     0.80400
N128        N  0.00111198  0.30529433  0.33330993    -0.77900
C129        C  0.97761929  0.28089417  0.34620763     0.82800
N130        N  0.99509360  0.26021927  0.35540950    -0.77900
C131        C  0.03634651  0.26482698  0.35153079     0.82900
N132        N  0.05958131  0.28986142  0.33835471    -0.79600
C133        C  0.71196324  0.15773729  0.21378900     0.80400
N134        N  0.69657759  0.11748869  0.20607512    -0.77900
C135        C  0.72239511  0.11355844  0.19431692     0.82800
N136        N  0.76407287  0.14981062  0.19063161    -0.77900
C137        C  0.77924353  0.18980588  0.19855205     0.82900
N138        N  0.75283442  0.19315883  0.20989848    -0.79600
C139        C  0.71495033  0.02649382  0.16579989     0.80400
N140        N  0.73062334  0.06655100  0.17367696    -0.77900
C141        C  0.70522869  0.07027655  0.18564100     0.82800
N142        N  0.66380453  0.03389815  0.18947270    -0.77900
C143        C  0.64827932  0.99398924  0.18145446     0.82900
N144        N  0.67416847  0.99084446  0.16981427    -0.79600
C145        C  0.49341808  0.69662927  0.33001244     0.80400
N146        N  0.51126884  0.73440524  0.33937225    -0.77900
C147        C  0.53635954  0.73712944  0.35259011     0.82800
N148        N  0.54358714  0.70205804  0.35631121    -0.77900
C149        C  0.52585379  0.66465760  0.34678935     0.82900
N150        N  0.50105819  0.66254568  0.33385546    -0.79600
C151        C  0.59560037  0.81617603  0.38614880     0.80400
N152        N  0.57667540  0.77831360  0.37686876    -0.77900
C153        C  0.55617959  0.77798887  0.36272819     0.82800
N154        N  0.55493482  0.81581615  0.35790921    -0.77900
C155        C  0.57480086  0.85387222  0.36713501     0.82900
N156        N  0.59467505  0.85342082  0.38110214    -0.79600
C157        C  0.28189712  0.16018880  0.71455559     0.80400
N158        N  0.26084093  0.12119096  0.70584998    -0.77900
C159        C  0.23331586  0.11775956  0.69331247     0.82800
N160        N  0.22673642  0.15330393  0.68969140    -0.77900
C161        C  0.24777997  0.19200535  0.69853557     0.82900
N162        N  0.27507519  0.19485816  0.71074117    -0.79600
C163        C  0.16578266  0.03582113  0.66134810     0.80400
N164        N  0.17025308  0.99995749  0.66558568    -0.77900
C165        C  0.19419670  0.00083933  0.67865200     0.82800
N166        N  0.21491264  0.03914612  0.68774311    -0.77900
C167        C  0.21080610  0.07592947  0.68363841     0.82900
N168        N  0.18595262  0.07406526  0.67045088    -0.79600
C169        C  0.44141445  0.98558247  0.49739530     0.80400
N170        N  0.47687752  0.98016568  0.50143317    -0.77900
C171        C  0.47547471  0.95528478  0.51430185     0.82800
N172        N  0.43726381  0.93504301  0.52347155    -0.77900
C173        C  0.40112051  0.94044331  0.51961780     0.82900
N174        N  0.40326867  0.96566780  0.50652046    -0.79600
C175        C  0.31555032  0.86817933  0.54997028     0.80400
N176        N  0.35557701  0.89103728  0.54192098    -0.77900
C177        C  0.35890429  0.91739356  0.52900862     0.82800
N178        N  0.32224139  0.92088385  0.52433539    -0.77900
C179        C  0.28240338  0.89756692  0.53240784     0.82900
N180        N  0.27966562  0.87159471  0.54502733    -0.79600
C181        C  0.66011007  0.54696456  0.22003574     0.80400
N182        N  0.62369484  0.54926322  0.21500214    -0.77900
C183        C  0.62383312  0.56946483  0.20107398     0.82800
N184        N  0.66198763  0.58875887  0.19186947    -0.77900
C185        C  0.69929990  0.58649339  0.19669403     0.82900
N186        N  0.69815256  0.56521104  0.21078540    -0.79600
C187        C  0.78431862  0.65705216  0.16586405     0.80400
N188        N  0.81865058  0.64965056  0.16965718    -0.77900
C189        C  0.81517365  0.62167457  0.18174638     0.82800
N190        N  0.77625988  0.60073692  0.19053188    -0.77900
C191        C  0.74106779  0.60787993  0.18690634     0.82900
N192        N  0.74508581  0.63586189  0.17444080    -0.79600
C193        C  0.83129647  0.36850775  0.99438624     0.80400
N194        N  0.85339948  0.40749241  0.00304985    -0.77900
C195        C  0.87741209  0.40896921  0.01642476     0.82800
N196        N  0.87914773  0.37128448  0.02102942    -0.77900
C197        C  0.85651573  0.33225187  0.01241310     0.82900
N198        N  0.83297949  0.33143745  0.99924057    -0.79600
C199        C  0.94830862  0.49254348  0.04761950     0.80400
N200        N  0.94398892  0.52840166  0.04319044    -0.77900
C201        C  0.91861788  0.52662154  0.03046267     0.82800
N202        N  0.89684144  0.48772727  0.02176518    -0.77900
C203        C  0.90101660  0.45106935  0.02592956     0.82900
N204        N  0.92665836  0.45343610  0.03896744    -0.79600
C205        C  0.11700007  0.32861685  0.83308966     0.80400
N206        N  0.07739349  0.30644075  0.84141816    -0.77900
C207        C  0.07399463  0.27967586  0.85423663     0.82800
N208        N  0.11024947  0.27477616  0.85846819    -0.77900
C209        C  0.14971087  0.29719747  0.85003066     0.82900
N210        N  0.15235984  0.32375829  0.83758210    -0.79600
C211        C  0.98814044  0.20836581  0.88485139     0.80400
N212        N  0.95310535  0.21380401  0.88030409    -0.77900
C213        C  0.95586944  0.23982345  0.86765528     0.82800
N214        N  0.99513048  0.26123750  0.85909662    -0.77900
C215        C  0.03117989  0.25612427  0.86342905     0.82900
N216        N  0.02765048  0.22970810  0.87639735    -0.79600
O217        O  0.55484119  0.18279270  0.81512104    -0.80000
O218        O  0.66284057  0.39142566  0.86817612    -0.81500
O219        O  0.62257453  0.33792027  0.81517731    -0.78600
O220        O  0.68233284  0.27673480  0.84579010    -0.76900
O221        O  0.65746324  0.23204610  0.86827315    -0.78700
O222        O  0.55773237  0.34259409  0.81483566    -0.79700
O223        O  0.68462419  0.36645242  0.84624603    -0.81000
O224        O  0.62337804  0.24890454  0.81500673    -0.81300
Eu225      Eu  0.62182651  0.29233927  0.83807927     2.39200
O226        O  0.62106278  0.29189179  0.86620357    -0.88800
O227        O  0.54689917  0.25655731  0.82841799    -0.92400
C228        C  0.59461709  0.20984056  0.80918688     1.02300
C229        C  0.69177145  0.39584854  0.85729040     1.02100
C230        C  0.59682889  0.35200088  0.80917875     1.02100
C231        C  0.68721560  0.25413586  0.85728842     0.99900
H232        H  0.60308124  0.36383147  0.84331328     0.29700
O233        O  0.58673090  0.33284147  0.84712118    -1.01200
H234        H  0.59742789  0.20090306  0.84360071     0.29700
O235        O  0.58240328  0.21683644  0.84740218    -1.03700
O236        O  0.53850381  0.33235769  0.89738854    -0.80900
O237        O  0.43021065  0.12001819  0.84520868    -0.80500
O238        O  0.52675262  0.37265841  0.84517632    -0.78900
O239        O  0.62914946  0.26487489  0.89778280    -0.82300
O240        O  0.56589863  0.14029835  0.86832864    -0.80100
O241        O  0.46719738  0.25051734  0.81469068    -0.78800
O242        O  0.41211940  0.23915357  0.86834702    -0.80300
O243        O  0.47111182  0.17450323  0.89790365    -0.82200
O244        O  0.43737433  0.28545347  0.84624111    -0.78900
O245        O  0.53679671  0.17143954  0.89866518    -0.81600
O246        O  0.56989116  0.39192766  0.86801420    -0.77400
O247        O  0.46348461  0.18135246  0.81448175    -0.77400
O248        O  0.52153377  0.12003791  0.84576785    -0.77000
O249        O  0.63197395  0.33356360  0.89824388    -0.80500
O250        O  0.47013215  0.26617072  0.89812216    -0.80000
O251        O  0.41064019  0.14469345  0.86777595    -0.78300
Eu252      Eu  0.58563555  0.33161879  0.87535849     2.39800
Eu253      Eu  0.50727664  0.18119790  0.83781974     2.39600
Eu254      Eu  0.51139807  0.29641995  0.83763831     2.38400
Eu255      Eu  0.58160859  0.21689446  0.87566269     2.39900
Eu256      Eu  0.47123430  0.22074959  0.87530601     2.39800
O257        O  0.50658866  0.18085304  0.86606126    -0.92700
O258        O  0.51089639  0.29571941  0.86578083    -0.91600
C259        C  0.49886779  0.30605874  0.90343943     1.02500
C260        C  0.40268497  0.11495876  0.85675937     1.01200
C261        C  0.54839412  0.39976647  0.85688073     1.00600
C262        C  0.64290015  0.30480633  0.90368444     1.02600
C263        C  0.54325429  0.11243633  0.85691263     1.01500
C264        C  0.45448566  0.21105703  0.80859022     1.00400
C265        C  0.40816807  0.26402803  0.85748509     1.00400
C266        C  0.49737281  0.16133903  0.90412496     1.03000
H267        H  0.44034488  0.20622395  0.84314342     0.30400
O268        O  0.47123381  0.22087681  0.84702476    -1.04900
H269        H  0.54599740  0.25674995  0.89671550     0.32500
O270        O  0.54608358  0.25657133  0.88512207    -1.07400
O271        O  0.79018393  0.84499106  0.98419089    -0.80000
O272        O  0.89409829  0.05928457  0.03556095    -0.81500
O273        O  0.76007359  0.94170151  0.01311439    -0.78600
O274        O  0.88366431  0.00684863  0.98249506    -0.76900
O275        O  0.95215911  0.00924252  0.98174302    -0.78700
O276        O  0.74192245  0.89783515  0.03580482    -0.79700
O277        O  0.84687784  0.03282919  0.01376637    -0.81000
O278        O  0.78845301  0.91141475  0.98300348    -0.81300
Eu279      Eu  0.83668244  0.95907417  0.00523257     2.39200
O280        O  0.91244302  0.99937638  0.01400180    -0.88800
O281        O  0.80230658  0.88404769  0.01515186    -0.92400
C282        C  0.77635218  0.87085741  0.97811532     1.02300
C283        C  0.86872521  0.06273863  0.02474372     1.02100
C284        C  0.73317607  0.91904324  0.02475090     1.02100
C285        C  0.92332685  0.02004951  0.97631090     0.99900
H286        H  0.82166027  0.97357564  0.03772310     0.29700
O287        O  0.83793863  0.95924837  0.03357721    -1.01200
H288        H  0.87477969  0.92282970  0.98403921     0.29700
O289        O  0.87582110  0.92319809  0.99563326    -1.03700
O290        O  0.96081472  0.00093260  0.06477454    -0.80900
O291        O  0.85909422  0.78848128  0.01220102    -0.80500
O292        O  0.80599179  0.92880959  0.06683373    -0.78900
O293        O  0.01176690  0.04120460  0.01103343    -0.82300
O294        O  0.94953034  0.91773718  0.98118021    -0.80100
O295        O  0.74279983  0.80691191  0.03695534    -0.78800
O296        O  0.87627810  0.84423626  0.06561252    -0.80300
O297        O  0.99522087  0.90532607  0.03432787    -0.82200
O298        O  0.80722825  0.84060433  0.06640884    -0.78900
O299        O  0.01399193  0.94932030  0.01168236    -0.81600
O300        O  0.86998852  0.99909798  0.06584195    -0.77400
O301        O  0.76676494  0.78669043  0.01438225    -0.77400
O302        O  0.88436513  0.84838126  0.98156414    -0.77000
O303        O  0.98679447  0.06325080  0.03291740    -0.80500
O304        O  0.96426397  0.93533321  0.06534339    -0.80000
O305        O  0.90685519  0.81447876  0.03386909    -0.78300
Eu306      Eu  0.91381678  0.00025832  0.04221566     2.39800
Eu307      Eu  0.84132367  0.84822464  0.00547410     2.39600
Eu308      Eu  0.80396953  0.88423130  0.04336758     2.38400
Eu309      Eu  0.95183057  0.96336140  0.00447578     2.39900
Eu310      Eu  0.91929652  0.88938806  0.04230755     2.39800
O311        O  0.91742862  0.88837335  0.01408736    -0.92700
O312        O  0.87994845  0.92518240  0.05178473    -0.91600
C313        C  0.97417197  0.97466649  0.07091689     1.02500
C314        C  0.88426017  0.78459565  0.02294328     1.01200
C315        C  0.83254499  0.96899448  0.07242222     1.00600
C316        C  0.01586894  0.07054188  0.02169480     1.02600
C317        C  0.92277193  0.87787424  0.97532674     1.01500
C318        C  0.73772630  0.77873176  0.02568732     1.00400
C319        C  0.83710776  0.83138334  0.07199245     1.00400
C320        C  0.02243337  0.92799347  0.02277674     1.03000
H321        H  0.82919587  0.81763389  0.03771206     0.30400
O322        O  0.84328288  0.84842132  0.03372047    -1.04900
H323        H  0.98511678  0.98158134  0.03633862     0.32500
O324        O  0.95394937  0.96487495  0.03273776    -1.07400
O325        O  0.63054748  0.33396349  0.39771780    -0.80000
O326        O  0.53233367  0.12372131  0.34426602    -0.81500
O327        O  0.54167423  0.17653652  0.39768404    -0.78600
O328        O  0.66416628  0.23818888  0.36746052    -0.76900
O329        O  0.68509343  0.28450128  0.34537503    -0.78700
O330        O  0.47225519  0.17215685  0.39787304    -0.79700
O331        O  0.57689038  0.14831074  0.36676732    -0.81000
O332        O  0.63497157  0.26892531  0.39771570    -0.81300
Eu333      Eu  0.58818385  0.22267651  0.37500533     2.39200
O334        O  0.58973194  0.22343750  0.34672911    -0.88800
O335        O  0.54736287  0.25696575  0.38446608    -0.92400
C336        C  0.64501394  0.30816034  0.40343017     1.02300
C337        C  0.55580543  0.11910435  0.35551929     1.02100
C338        C  0.50182499  0.16287513  0.40366883     1.02100
C339        C  0.69236771  0.26186163  0.35628722     0.99900
H340        H  0.49895512  0.15125937  0.36911328     0.29700
O341        O  0.51331839  0.18227165  0.36536378    -1.01200
H342        H  0.65421508  0.31478567  0.36968033     0.29700
O343        O  0.62328336  0.29832638  0.36587850    -1.03700
O344        O  0.46912884  0.18284337  0.31436434    -0.80900
O345        O  0.56538757  0.39267759  0.36848474    -0.80500
O346        O  0.41352764  0.13946778  0.36693254    -0.78900
O347        O  0.62473005  0.25750525  0.31383423    -0.82300
O348        O  0.68253829  0.37595199  0.34467167    -0.80100
O349        O  0.47148995  0.26157698  0.39769827    -0.78800
O350        O  0.43038070  0.27482738  0.34443276    -0.80300
O351        O  0.55481672  0.34408333  0.31609002    -0.82200
O352        O  0.40889709  0.22726180  0.36616789    -0.78900
O353        O  0.62355248  0.34701735  0.31566485    -0.81600
O354        O  0.43922784  0.12121013  0.34430907    -0.77400
O355        O  0.53705059  0.33052793  0.39877401    -0.77400
O356        O  0.65688406  0.39573719  0.36694242    -0.77000
O357        O  0.56081294  0.18715868  0.31376102    -0.80500
O358        O  0.46495629  0.24804254  0.31424780    -0.80000
O359        O  0.52143538  0.36799353  0.34584988    -0.78300
Eu360      Eu  0.51480208  0.18350668  0.33713467     2.39800
Eu361      Eu  0.58255306  0.33265063  0.37545611     2.39600
Eu362      Eu  0.47235069  0.21672055  0.37471129     2.38400
Eu363      Eu  0.62360049  0.29892738  0.33766257     2.39900
Eu364      Eu  0.50802066  0.29308659  0.33767301     2.39800
O365        O  0.58286454  0.33310933  0.34727420    -0.92700
O366        O  0.47345104  0.21737176  0.34652782    -0.91600
C367        C  0.45573627  0.20918316  0.30840525     1.02500
C368        C  0.54266638  0.39744311  0.35700406     1.01200
C369        C  0.40932810  0.11239749  0.35535858     1.00600
C370        C  0.59871629  0.21800411  0.30766569     1.02600
C371        C  0.68645420  0.40398022  0.35579614     1.01500
C372        C  0.49758024  0.30077533  0.40414566     1.00400
C373        C  0.40138645  0.24954956  0.35518548     1.00400
C374        C  0.59506446  0.35856761  0.31042222     1.03000
H375        H  0.49028652  0.30662061  0.36979274     0.30400
O376        O  0.50707784  0.29257947  0.36591213    -1.04900
H377        H  0.54908625  0.25994606  0.31643772     0.32500
O378        O  0.54882158  0.25901441  0.32801765    -1.07400
O379        O  0.34900625  0.71126876  0.67810791    -0.80000
O380        O  0.14116570  0.59670639  0.73263849    -0.81500
O381        O  0.23246309  0.72804885  0.70259462    -0.78600
O382        O  0.29881048  0.67089812  0.73100065    -0.76900
O383        O  0.30086120  0.60466428  0.73174486    -0.78700
O384        O  0.18827089  0.70392344  0.67999201    -0.79700
O385        O  0.20637103  0.66593686  0.73306778    -0.81000
O386        O  0.32455360  0.73074673  0.70076123    -0.81300
Eu387      Eu  0.24990230  0.66821525  0.70901676     2.39200
O388        O  0.21486538  0.59321037  0.71863307    -0.88800
O389        O  0.24932121  0.66845004  0.68072180    -0.92400
C390        C  0.35374979  0.73908853  0.68948588     1.02300
C391        C  0.16781227  0.63580158  0.73899489     1.02100
C392        C  0.20936763  0.73300342  0.69131861     1.02100
C393        C  0.31219691  0.64462651  0.73701941     0.99900
H394        H  0.15813574  0.64260703  0.70385991     0.29700
O395        O  0.17436472  0.62821409  0.69979268    -1.01200
H396        H  0.32134926  0.65011889  0.70309005     0.29700
O397        O  0.29037781  0.63373469  0.69936647    -1.03700
O398        O  0.07816725  0.47758419  0.70180632    -0.80900
O399        O  0.28987968  0.58566360  0.64887404    -0.80500
O400        O  0.09673269  0.61091231  0.67905268    -0.78900
O401        O  0.20990925  0.51242650  0.73184867    -0.82300
O402        O  0.33094897  0.57392401  0.70117711    -0.80100
O403        O  0.21847400  0.67380559  0.64845167    -0.78800
O404        O  0.13445565  0.51780821  0.64833168    -0.80300
O405        O  0.19950969  0.45962232  0.67877366    -0.82200
O406        O  0.12902950  0.58232704  0.64841857    -0.78900
O407        O  0.24515431  0.48529086  0.70098772    -0.81600
O408        O  0.07821865  0.56738799  0.70181682    -0.77400
O409        O  0.28790481  0.67812442  0.64809720    -0.77400
O410        O  0.35148053  0.61951679  0.67889707    -0.77000
O411        O  0.13987323  0.50659340  0.73182326    -0.80500
O412        O  0.10316622  0.45718668  0.67951887    -0.80000
O413        O  0.22464346  0.51631762  0.64881271    -0.78300
Eu414      Eu  0.13979107  0.55294575  0.70913425     2.39800
Eu415      Eu  0.28961370  0.63352473  0.67109740     2.39600
Eu416      Eu  0.17384852  0.62821439  0.67151296     2.38400
Eu417      Eu  0.25495113  0.55858656  0.70896493     2.39900
Eu418      Eu  0.17920913  0.51775662  0.67147575     2.39800
O419        O  0.25432512  0.55874152  0.68076945    -0.92700
O420        O  0.13896897  0.55275687  0.68088641    -0.91600
C421        C  0.07337751  0.44976981  0.69048780     1.02500
C422        C  0.26402647  0.54529116  0.64318869     1.01200
C423        C  0.06966202  0.58857380  0.69071026     1.00600
C424        C  0.16985126  0.49796016  0.73771823     1.02600
C425        C  0.35897850  0.59719322  0.68988879     1.01500
C426        C  0.25814516  0.68732385  0.64236559     1.00400
C427        C  0.12057604  0.54386240  0.64241160     1.00400
C428        C  0.22419506  0.45595189  0.68981260     1.03000
H429        H  0.21408103  0.59299609  0.65043713     0.30400
O430        O  0.21409944  0.59312411  0.66201021    -1.04900
H431        H  0.16511569  0.48635468  0.70354338     0.32500
O432        O  0.17944861  0.51725303  0.69970828    -1.07400
O433        O  0.21837428  0.51205342  0.14810462    -0.80000
O434        O  0.33508391  0.72270599  0.20179616    -0.81500
O435        O  0.29224732  0.67017595  0.14849104    -0.78600
O436        O  0.35112775  0.60586310  0.17766290    -0.76900
O437        O  0.32714712  0.56196974  0.20034442    -0.78700
O438        O  0.22626311  0.67280399  0.14799476    -0.79700
O439        O  0.35520222  0.69688139  0.17962848    -0.81000
O440        O  0.28812756  0.57674292  0.14750633    -0.81300
Eu441      Eu  0.29133621  0.62317005  0.17085506     2.39200
O442        O  0.29198261  0.62439036  0.19906585    -0.88800
O443        O  0.21586974  0.58830284  0.16163333    -0.92400
C444        C  0.25769407  0.53795308  0.14180770     1.02300
C445        C  0.36356506  0.72630064  0.19085712     1.02100
C446        C  0.26567021  0.68316015  0.14245159     1.02100
C447        C  0.35609252  0.58286964  0.18899188     0.99900
H448        H  0.27346719  0.69438554  0.17645309     0.29700
O449        O  0.25673317  0.66361378  0.18040066    -1.01200
H450        H  0.26508167  0.53144130  0.17637057     0.29700
O451        O  0.25088893  0.54801917  0.18029874    -1.03700
O452        O  0.20949519  0.66811846  0.23049134    -0.80900
O453        O  0.09798082  0.45369973  0.17835382    -0.80500
O454        O  0.19977345  0.70685706  0.17769356    -0.78900
O455        O  0.29989958  0.59532454  0.23084008    -0.82300
O456        O  0.23530402  0.47268693  0.20156433    -0.80100
O457        O  0.13504370  0.58402513  0.14820747    -0.78800
O458        O  0.08118035  0.57051189  0.20212267    -0.80300
O459        O  0.14083413  0.50588213  0.23108066    -0.82200
O460        O  0.10672643  0.61570881  0.17977526    -0.78900
O461        O  0.20718539  0.50399354  0.23156898    -0.81600
O462        O  0.24642352  0.72768425  0.19965779    -0.77400
O463        O  0.13070441  0.51462827  0.14799015    -0.77400
O464        O  0.18859276  0.45164044  0.17960020    -0.77000
O465        O  0.30196988  0.66363295  0.23179146    -0.80500
O466        O  0.14189581  0.60101081  0.23140256    -0.80000
O467        O  0.07878256  0.47885632  0.20088155    -0.78300
Eu468      Eu  0.25694206  0.66457333  0.20868350     2.39800
Eu469      Eu  0.17515919  0.51329246  0.17123671     2.39600
Eu470      Eu  0.18125228  0.62874634  0.17114213     2.38400
Eu471      Eu  0.25222163  0.54947546  0.20854635     2.39900
Eu472      Eu  0.14160398  0.55388112  0.20891448     2.39800
O473        O  0.17656866  0.51385521  0.19944280    -0.92700
O474        O  0.18166544  0.62916512  0.19935525    -0.91600
C475        C  0.16972948  0.64147554  0.23650779     1.02500
C476        C  0.07020190  0.44943227  0.18965843     1.01200
C477        C  0.22475950  0.73563971  0.18855450     1.00600
C478        C  0.31270002  0.63454739  0.23713793     1.02600
C479        C  0.21101784  0.44425357  0.19055418     1.01500
C480        C  0.12155791  0.54435240  0.14213492     1.00400
C481        C  0.07705850  0.59428479  0.19087431     1.00400
C482        C  0.16744335  0.49278140  0.23704758     1.03000
H483        H  0.10950040  0.53927192  0.17682009     0.30400
O484        O  0.14038752  0.55359615  0.18064726    -1.04900
H485        H  0.21711533  0.58947113  0.22994583     0.32500
O486        O  0.21702899  0.58937127  0.21836344    -1.07400
O487        O  0.87240828  0.99799304  0.56490137    -0.80000
O488        O  0.76179542  0.78265483  0.51402705    -0.81500
O489        O  0.74031075  0.90007906  0.53555851    -0.78600
O490        O  0.80470080  0.84285168  0.56593720    -0.76900
O491        O  0.86904134  0.83716724  0.56594865    -0.78700
O492        O  0.76601147  0.94719880  0.51370180    -0.79700
O493        O  0.74241341  0.80811958  0.53644046    -0.81000
O494        O  0.80265732  0.93335024  0.56500524    -0.81300
Eu495      Eu  0.80236830  0.88568892  0.54273620     2.39200
O496        O  0.83746664  0.84534588  0.53343927    -0.88800
O497        O  0.84195008  0.96078156  0.53322135    -0.92400
C498        C  0.83236825  0.97236347  0.57071063     1.02300
C499        C  0.73493375  0.77753956  0.52581511     1.02100
C500        C  0.73598626  0.92454545  0.52460072     1.02100
C501        C  0.83096765  0.82947664  0.57197589     0.99900
H502        H  0.77011829  0.86922055  0.51100054     0.29700
O503        O  0.80134372  0.88434978  0.51455881    -1.01200
H504        H  0.87828350  0.92157537  0.56373671     0.29700
O505        O  0.87777076  0.92087279  0.55213830    -1.03700
O506        O  0.88369262  0.84389663  0.48257398    -0.80900
O507        O  0.99418178  0.05608872  0.53557812    -0.80500
O508        O  0.79143114  0.91114169  0.48325480    -0.78900
O509        O  0.89577215  0.80294167  0.53527079    -0.82300
O510        O  0.96208927  0.92813100  0.56466708    -0.80100
O511        O  0.85812999  0.03672394  0.51213927    -0.78800
O512        O  0.95197928  0.00122866  0.48208251    -0.80300
O513        O  0.01212297  0.93911248  0.51218930    -0.82200
O514        O  0.88614510  0.00416369  0.48168407    -0.78900
O515        O  0.98743523  0.89340181  0.53443923    -0.81600
O516        O  0.78853830  0.84234095  0.48295717    -0.77400
O517        O  0.90518606  0.05789904  0.53402026    -0.77400
O518        O  0.96428492  0.99654153  0.56522728    -0.77000
O519        O  0.85125878  0.78306446  0.51276792    -0.80500
O520        O  0.95184312  0.91049599  0.48211047    -0.80000
O521        O  0.01449442  0.03071209  0.51339483    -0.78300
Eu522      Eu  0.83695173  0.84444547  0.50520428     2.39800
Eu523      Eu  0.91741662  0.99581774  0.54246877     2.39600
Eu524      Eu  0.84075957  0.95956488  0.50499894     2.38400
Eu525      Eu  0.91294338  0.88063117  0.54263978     2.39900
Eu526      Eu  0.95189774  0.95583120  0.50501384     2.39800
O527        O  0.95280732  0.95591452  0.53320270    -0.92700
O528        O  0.87638138  0.91978681  0.49561762    -0.91600
C529        C  0.92344056  0.87078265  0.47659112     1.02500
C530        C  0.02248820  0.06029566  0.52450999     1.01200
C531        C  0.77702570  0.87080170  0.47762822     1.00600
C532        C  0.87290360  0.77508036  0.52383906     1.02600
C533        C  0.97567962  0.96800677  0.57061582     1.01500
C534        C  0.88306263  0.06541571  0.52301549     1.00400
C535        C  0.92545013  0.01424003  0.47598307     1.00400
C536        C  0.01663310  0.91512759  0.52326656     1.03000
H537        H  0.93286874  0.02639094  0.51027329     0.30400
O538        O  0.91646355  0.99556166  0.51423946    -1.04900
H539        H  0.92706085  0.86428103  0.51058571     0.32500
O540        O  0.91234400  0.88047002  0.51445815    -1.07400
C541        C  0.93058486  0.08714258  0.94214986     0.20500
C542        C  0.91440860  0.10659443  0.93111190    -0.39400
C543        C  0.94530106  0.13409762  0.91937270     0.19500
C544        C  0.98931911  0.14205574  0.91846231     0.22100
C545        C  0.00567292  0.12225010  0.92958510    -0.39900
C546        C  0.97441112  0.09438003  0.94148162     0.20900
N547        N  0.90741980  0.06008471  0.95449792    -0.33200
C548        C  0.93627219  0.04949875  0.96193308    -0.10700
C549        C  0.97855237  0.07018483  0.95414461    -0.29500
N550        N  0.01153124  0.16994371  0.90596457    -0.46100
C551        C  0.98090896  0.17931319  0.89903983    -0.05400
C552        C  0.93952193  0.15751816  0.90715421    -0.22800
H553        H  0.88011053  0.10083084  0.93165750     0.19000
H554        H  0.04000306  0.12812192  0.92905194     0.17800
H555        H  0.00826357  0.06804158  0.95736793     0.14100
H556        H  0.90892775  0.15860609  0.90445121     0.14000
H557        H  0.87384545  0.04947766  0.95767827     0.32100
H558        H  0.04504780  0.18172314  0.90239633     0.34900
C559        C  0.84943053  0.23584352  0.86858943     0.20500
C560        C  0.80695515  0.22288032  0.87516387    -0.39400
C561        C  0.78131838  0.23785829  0.86693696     0.19500
C562        C  0.79660511  0.26407605  0.85316565     0.22100
C563        C  0.83970005  0.27736432  0.84653981    -0.39900
C564        C  0.86569754  0.26205892  0.85484616     0.20900
N565        N  0.87948232  0.22527078  0.87437724    -0.33200
C566        C  0.91583327  0.24463162  0.86444363    -0.10700
C567        C  0.90872084  0.26811707  0.85198276    -0.29500
N568        N  0.76495194  0.27360487  0.84774552    -0.46100
C569        C  0.72973257  0.25306040  0.85823607    -0.05400
C570        C  0.73884401  0.23053991  0.87031293    -0.22800
H571        H  0.79468536  0.20238985  0.88593612     0.19000
H572        H  0.85192580  0.29785993  0.83577553     0.17800
H573        H  0.93163516  0.28689585  0.84226671     0.14100
H574        H  0.71723889  0.21135758  0.88027179     0.14000
H575        H  0.87529467  0.20589928  0.88465718     0.32100
H576        H  0.76711869  0.29273831  0.83761760     0.34900
C577        C  0.11146004  0.38627987  0.79779237     0.20500
C578        C  0.09224503  0.39931866  0.78536388    -0.39400
C579        C  0.12254352  0.42675883  0.77324640     0.19500
C580        C  0.16815135  0.43963535  0.77351288     0.22100
C581        C  0.18718543  0.42661963  0.78580216    -0.39900
C582        C  0.15721015  0.39978922  0.79786312     0.20900
N583        N  0.09036525  0.35972562  0.81064138    -0.33200
C584        C  0.12332192  0.35661084  0.81876297    -0.10700
C585        C  0.16527193  0.38138788  0.81115789    -0.29500
N586        N  0.19006149  0.46581831  0.76086521    -0.46100
C587        C  0.15852213  0.47020974  0.75239065    -0.05400
C588        C  0.11581836  0.44625328  0.75970018    -0.22800
H589        H  0.05654373  0.38900259  0.78515315     0.19000
H590        H  0.22286623  0.43677144  0.78598358     0.17800
H591        H  0.19741812  0.38464753  0.81470053     0.14100
H592        H  0.08434475  0.44374293  0.75571842     0.14000
H593        H  0.05587551  0.34408349  0.81350187     0.32100
H594        H  0.22464268  0.48032836  0.75827745     0.34900
C595        C  0.23627909  0.27154054  0.86163165     0.20500
C596        C  0.25663577  0.24894441  0.86910713    -0.39400
C597        C  0.30070841  0.26139910  0.86370415     0.19500
C598        C  0.32247583  0.29384826  0.85186224     0.22100
C599        C  0.30264536  0.31672463  0.84466361    -0.39900
C600        C  0.25903879  0.30424952  0.84997115     0.20900
N601        N  0.19385841  0.26470007  0.86376840    -0.33200
C602        C  0.19031501  0.29340015  0.85327037    -0.10700
C603        C  0.23040500  0.31854746  0.84463269    -0.29500
N604        N  0.36305072  0.29867776  0.84830278    -0.46100
C605        C  0.36770566  0.26916707  0.85790166    -0.05400
C606        C  0.32962406  0.24537093  0.86779373    -0.22800
H607        H  0.23918144  0.22297639  0.87813227     0.19000
H608        H  0.31954855  0.34171885  0.83528727     0.17800
H609        H  0.23729785  0.34321975  0.83523668     0.14100
H610        H  0.32363457  0.21941413  0.87655281     0.14000
H611        H  0.16881444  0.24146220  0.87150769     0.32100
H612        H  0.38608556  0.32062130  0.83974927     0.34900
C613        C  0.01026092  0.48705181  0.08180250     0.20500
C614        C  0.02734577  0.46875506  0.09323552    -0.39400
C615        C  0.05315284  0.49825927  0.10581780     0.19500
C616        C  0.06099730  0.54227252  0.10682765     0.22100
C617        C  0.04446754  0.56049684  0.09543757    -0.39900
C618        C  0.01907079  0.53133800  0.08299705     0.20900
N619        N  0.98384803  0.46638860  0.06886050    -0.33200
C620        C  0.97625290  0.49825526  0.06195685    -0.10700
C621        C  0.99790757  0.53895349  0.07045941    -0.29500
N622        N  0.08572208  0.56349467  0.11982435    -0.46100
C623        C  0.09423923  0.53318065  0.12730719    -0.05400
C624        C  0.07451194  0.49193636  0.11892697    -0.22800
H625        H  0.02078985  0.43420334  0.09248021     0.19000
H626        H  0.05065280  0.59492358  0.09626913     0.17800
H627        H  0.99766191  0.57008320  0.06792676     0.14100
H628        H  0.07565196  0.46158444  0.12200293     0.14000
H629        H  0.97154828  0.43294750  0.06508479     0.32100
H630        H  0.09634667  0.59684251  0.12333974     0.34900
C631        C  0.89087406  0.61190577  0.01924029     0.20500
C632        C  0.86598159  0.63089530  0.01253642    -0.39400
C633        C  0.87912435  0.67547264  0.01755645     0.19500
C634        C  0.91422972  0.69884789  0.02836004     0.22100
C635        C  0.93915989  0.68024848  0.03483297    -0.39900
C636        C  0.92614042  0.63621793  0.02987716     0.20900
N637        N  0.88398361  0.56940463  0.01735961    -0.33200
C638        C  0.91507779  0.56727706  0.02702801    -0.10700
C639        C  0.94201052  0.60843143  0.03482399    -0.29500
N640        N  0.91990301  0.73994241  0.03158198    -0.46100
C641        C  0.88844333  0.74349334  0.02276419    -0.05400
C642        C  0.86221573  0.70392740  0.01378964    -0.22800
H643        H  0.83804295  0.61216670  0.00432215     0.19000
H644        H  0.96627496  0.69849069  0.04339698     0.17800
H645        H  0.96861622  0.61643101  0.04353317     0.14100
H646        H  0.83447833  0.69688550  0.00573244     0.14000
H647        H  0.85892605  0.54325104  0.01044503     0.32100
H648        H  0.94397859  0.76424154  0.03931760     0.34900
C649        C  0.84019585  0.22040358  0.01515408     0.20500
C650        C  0.82214103  0.17515274  0.01037819    -0.39400
C651        C  0.84143096  0.15163334  0.01757603     0.12900
C652        C  0.87581028  0.17133157  0.02885484     0.22100
C653        C  0.89352090  0.21673983  0.03383684    -0.39900
C654        C  0.87442790  0.24063391  0.02646861     0.20900
N655        N  0.82933702  0.25033368  0.00923892    -0.33200
C656        C  0.85674716  0.29029955  0.01670474    -0.10700
C657        C  0.88528491  0.28567283  0.02768782    -0.29500
N658        N  0.88955584  0.14193217  0.03327448    -0.46100
C659        C  0.86389599  0.10358864  0.02458734    -0.05400
C660        C  0.83340735  0.10844814  0.01475859    -0.22800
H661        H  0.79592880  0.15980073  0.00131145     0.19000
H662        H  0.92096993  0.23263979  0.04242758     0.17800
H663        H  0.91144995  0.31193250  0.03505501     0.14100
H664        H  0.80934188  0.08399882  0.00634174     0.14000
H665        H  0.80526153  0.24405840  0.00032708     0.32100
H666        H  0.91545909  0.14795376  0.04135965     0.34900
C667        C  0.76497165  0.33231002  0.95872817     0.20500
C668        C  0.74004764  0.30076928  0.94682507    -0.39400
C669        C  0.71668896  0.31350288  0.93626021     0.19500
C670        C  0.71811684  0.35483154  0.93721849     0.22100
C671        C  0.74383614  0.38706299  0.94915186    -0.39900
C672        C  0.76721056  0.37399465  0.95997571     0.20900
N673        N  0.78802366  0.32647172  0.97055358    -0.33200
C674        C  0.80541458  0.36441605  0.97967578    -0.10700
C675        C  0.79353238  0.39535762  0.97342665    -0.29500
N676        N  0.69180354  0.35771213  0.92567229    -0.46100
C677        C  0.67379683  0.31771264  0.91752954    -0.05400
C678        C  0.68867106  0.28956704  0.92383245    -0.22800
H679        H  0.73819330  0.26808700  0.94606222     0.19000
H680        H  0.74487502  0.41932043  0.95011722     0.17800
H681        H  0.80182619  0.42813868  0.97828358     0.14100
H682        H  0.68000026  0.25585122  0.91986141     0.14000
H683        H  0.79101039  0.29767425  0.97243280     0.32100
H684        H  0.68634821  0.38488677  0.92351096     0.34900
C685        C  0.92074013  0.62354605  0.18077881     0.20500
C686        C  0.96405821  0.63729981  0.17480302    -0.39400
C687        C  0.98736369  0.61856463  0.18240597     0.19500
C688        C  0.96926468  0.58833263  0.19508278     0.22100
C689        C  0.92540523  0.57433554  0.20110020    -0.39900
C690        C  0.90171522  0.59321051  0.19339096     0.20900
N691        N  0.89228680  0.63689656  0.17541826    -0.33200
C692        C  0.85434629  0.61516535  0.18454377    -0.10700
C693        C  0.85873231  0.58736219  0.19596277    -0.29500
N694        N  0.99898083  0.57554326  0.20004052    -0.46100
C695        C  0.03577732  0.59790263  0.19030023    -0.05400
C696        C  0.02960581  0.62495895  0.17922819    -0.22800
H697        H  0.97856187  0.66089641  0.16488274     0.19000
H698        H  0.91084520  0.55056935  0.21096194     0.17800
H699        H  0.83401096  0.56588531  0.20483486     0.14100
H700        H  0.05292689  0.64636041  0.16998677     0.14000
H701        H  0.89849915  0.65957875  0.16598549     0.32100
H702        H  0.99442847  0.55293411  0.20931442     0.34900
C703        C  0.83655532  0.77417547  0.10790741     0.20500
C704        C  0.85532416  0.75944416  0.11972820    -0.39400
C705        C  0.82578700  0.73334372  0.13199637     0.19500
C706        C  0.78073930  0.72237787  0.13261229     0.22100
C707        C  0.76204019  0.73801127  0.12085069    -0.39900
C708        C  0.79182724  0.76434565  0.10844671     0.20900
N709        N  0.85771631  0.79857287  0.09483820    -0.33200
C710        C  0.82656913  0.80489152  0.08692266    -0.10700
C711        C  0.78493824  0.78408217  0.09502256    -0.29500
N712        N  0.75940464  0.69440502  0.14512305    -0.46100
C713        C  0.79148669  0.68777341  0.15230650    -0.05400
C714        C  0.83317875  0.71193231  0.14451817    -0.22800
H715        H  0.89022314  0.76694376  0.11922500     0.19000
H716        H  0.72683335  0.72951968  0.12112882     0.17800
H717        H  0.75394415  0.78341245  0.09154069     0.14100
H718        H  0.86451556  0.71238869  0.14729709     0.14000
H719        H  0.89149458  0.81046122  0.09157151     0.32100
H720        H  0.72518877  0.67983300  0.14827063     0.34900
C721        C  0.66330664  0.48503977  0.25435460     0.20500
C722        C  0.67672364  0.45984201  0.26401019    -0.39400
C723        C  0.64730776  0.43578674  0.27678427     0.19500
C724        C  0.60785763  0.43706389  0.27969937     0.22100
C725        C  0.59493309  0.46271451  0.27029798    -0.39900
C726        C  0.62401544  0.48633823  0.25757044     0.20900
N727        N  0.68314709  0.50817118  0.24076413    -0.33200
C728        C  0.65571470  0.52367795  0.23538455    -0.10700
C729        C  0.61894566  0.51105871  0.24566231    -0.29500
N730        N  0.58465230  0.40998479  0.29201571    -0.46100
C731        C  0.60933158  0.39111732  0.29707377    -0.05400
C732        C  0.64883792  0.40652234  0.28794012    -0.22800
H733        H  0.70694709  0.45794318  0.26148125     0.19000
H734        H  0.56370866  0.46309139  0.27242435     0.17800
H735        H  0.59094306  0.51739971  0.24420976     0.14100
H736        H  0.67462563  0.39691690  0.28910728     0.14000
H737        H  0.71226918  0.51165301  0.23521652     0.32100
H738        H  0.55368019  0.40442412  0.29660970     0.34900
C739        C  0.53324084  0.58602664  0.18734894     0.20500
C740        C  0.51191273  0.60738095  0.17973941    -0.39400
C741        C  0.46657256  0.59170798  0.18431424     0.19500
C742        C  0.44443049  0.55740814  0.19553197     0.22100
C743        C  0.46527817  0.53565259  0.20286027    -0.39900
C744        C  0.51027642  0.55138164  0.19837249     0.20900
N745        N  0.57705627  0.59653027  0.18614684    -0.33200
C746        C  0.58143700  0.56840932  0.19664824    -0.10700
C747        C  0.54042157  0.53968828  0.20429478    -0.29500
N748        N  0.40253868  0.54997762  0.19846304    -0.46100
C749        C  0.39755322  0.57961564  0.18904278    -0.05400
C750        C  0.43666361  0.60615719  0.17994492    -0.22800
H751        H  0.52963324  0.63499793  0.17130174     0.19000
H752        H  0.44816688  0.50936467  0.21181928     0.17800
H753        H  0.53397997  0.51476409  0.21354852     0.14100
H754        H  0.44273509  0.63304515  0.17159746     0.14000
H755        H  0.60253274  0.62215899  0.17917341     0.32100
H756        H  0.37891060  0.52639573  0.20651000     0.34900
C757        C  0.31891484  0.80465975  0.58375461     0.20500
C758        C  0.33673540  0.78724367  0.59517448    -0.39400
C759        C  0.30603345  0.75910115  0.60706413     0.19500
C760        C  0.26133141  0.74940453  0.60746741     0.22100
C761        C  0.24363008  0.76651329  0.59611864    -0.39900
C762        C  0.27404272  0.79429860  0.58435413     0.20900
N763        N  0.34058175  0.83254668  0.57127027    -0.33200
C764        C  0.30878346  0.83951199  0.56406481    -0.10700
C765        C  0.26711766  0.81615608  0.57191105    -0.29500
N766        N  0.23908742  0.72273422  0.61996329    -0.46100
C767        C  0.26957239  0.71506516  0.62771237    -0.05400
C768        C  0.31180334  0.73702418  0.62001068    -0.22800
H769        H  0.37176256  0.79514640  0.59488374     0.19000
H770        H  0.20869892  0.75895697  0.59648033     0.17800
H771        H  0.23576667  0.81548129  0.56895459     0.14100
H772        H  0.34254848  0.73720839  0.62350702     0.14000
H773        H  0.37454351  0.84603581  0.56793882     0.32100
H774        H  0.20514922  0.71062526  0.62305215     0.34900
C775        C  0.12466861  0.92284111  0.51832299     0.20500
C776        C  0.16982886  0.94059525  0.51310982    -0.39400
C777        C  0.19288368  0.91947492  0.51953341     0.19500
C778        C  0.17198668  0.88339676  0.53015343     0.22100
C779        C  0.12706659  0.86538896  0.53514769    -0.39900
C780        C  0.10448036  0.88667888  0.52893174     0.20900
N781        N  0.09578797  0.93773868  0.51466195    -0.33200
C782        C  0.05746820  0.91092376  0.52318453    -0.10700
C783        C  0.06167800  0.87872401  0.53215959    -0.29500
N784        N  0.20113360  0.87087991  0.53538721    -0.46100
C785        C  0.24132213  0.89910296  0.52822784    -0.05400
C786        C  0.23766752  0.92981427  0.51805087    -0.22800
H787        H  0.18612925  0.96942266  0.50507101     0.19000
H788        H  0.11133252  0.83773692  0.54369752     0.17800
H789        H  0.03685739  0.85319259  0.54013198     0.14100
H790        H  0.26439982  0.95711641  0.51117017     0.14000
H791        H  0.10196221  0.96477126  0.50709963     0.32100
H792        H  0.19422621  0.84533472  0.54377826     0.34900
C793        C  0.47839545  0.05233751  0.46186117     0.20500
C794        C  0.50978507  0.07621743  0.44979108    -0.39400
C795        C  0.49608433  0.09682774  0.43840691     0.19500
C796        C  0.45411512  0.09409308  0.43884927     0.22100
C797        C  0.42218129  0.06978107  0.45106621    -0.39900
C798        C  0.43610439  0.04886538  0.46264421     0.20900
N799        N  0.48445808  0.03038642  0.47400648    -0.33200
C800        C  0.44603576  0.01233736  0.48287478    -0.10700
C801        C  0.41460807  0.02294859  0.47619021    -0.29500
N802        N  0.45013960  0.11735034  0.42642011    -0.46100
C803        C  0.49000931  0.13462602  0.41821589    -0.05400
C804        C  0.51925531  0.12243358  0.42537876    -0.22800
H805        H  0.54277143  0.07869689  0.44934214     0.19000
H806        H  0.38927762  0.06746749  0.45154288     0.17800
H807        H  0.38103197  0.01325708  0.48061671     0.14100
H808        H  0.55314069  0.13124731  0.42157402     0.14000
H809        H  0.51348167  0.02798363  0.47611465     0.32100
H810        H  0.42230511  0.12128766  0.42371472     0.34900
C811        C  0.64787787  0.95032101  0.51704555     0.20500
C812        C  0.62817043  0.97273907  0.50936532    -0.39400
C813        C  0.58428249  0.96044931  0.51431821     0.19500
C814        C  0.56112307  0.92816524  0.52605893     0.22100
C815        C  0.58114541  0.90565767  0.53389981    -0.39900
C816        C  0.62561918  0.91810471  0.52890479     0.20900
N817        N  0.68920041  0.95612300  0.51418093    -0.33200
C818        C  0.69413714  0.92765869  0.52426033    -0.10700
C819        C  0.65509154  0.90320231  0.53371602    -0.29500
N820        N  0.51893932  0.92208776  0.52807006    -0.46100
C821        C  0.51583997  0.95079011  0.51742735    -0.05400
C822        C  0.55603786  0.97519084  0.50877622    -0.22800
H823        H  0.64567336  0.99775456  0.50004736     0.19000
H824        H  0.56337847  0.88018207  0.54305075     0.17800
H825        H  0.64903548  0.87791936  0.54276945     0.14100
H826        H  0.56337302  0.99994841  0.49937272     0.14000
H827        H  0.71275907  0.97834778  0.50581366     0.32100
H828        H  0.49376790  0.89944417  0.53590419     0.34900
C829        C  0.21120571  0.91012760  0.69257640     0.20500
C830        C  0.22871901  0.88719609  0.70162539    -0.39400
C831        C  0.21586424  0.84283731  0.69637853     0.19500
C832        C  0.18751494  0.82320380  0.68330087     0.22100
C833        C  0.16958582  0.84554630  0.67456691    -0.39900
C834        C  0.18270306  0.88946808  0.67963486     0.20900
N835        N  0.21940008  0.95316636  0.69434384    -0.33200
C836        C  0.19586135  0.95919501  0.68231091    -0.10700
C837        C  0.17268093  0.92011198  0.67304000    -0.29500
N838        N  0.18159714  0.78201999  0.68013534    -0.46100
C839        C  0.20632488  0.77470759  0.69118331    -0.05400
C840        C  0.22813599  0.81178640  0.70166114    -0.22800
H841        H  0.25144014  0.90300100  0.71167375     0.19000
H842        H  0.14788231  0.83022492  0.66423814     0.17800
H843        H  0.15168928  0.91495906  0.66259137     0.14100
H844        H  0.25059929  0.81584306  0.71152138     0.14000
H845        H  0.23996169  0.97688702  0.70295964     0.32100
H846        H  0.16228077  0.76040649  0.67081569     0.34900
C847        C  0.10115636  0.99980354  0.62526175     0.20500
C848        C  0.07983533  0.96982687  0.61253033    -0.39400
C849        C  0.05293289  0.97989260  0.60264661     0.19500
C850        C  0.04772814  0.01729399  0.60506975     0.22100
C851        C  0.06953931  0.04779370  0.61788687    -0.39900
C852        C  0.09657224  0.03748560  0.62795678     0.20900
N853        N  0.12682990  0.99591825  0.63657512    -0.33200
C854        C  0.13915076  0.03116652  0.64677283    -0.10700
C855        C  0.12119059  0.05834129  0.64178015    -0.29500
N856        N  0.01957580  0.01847606  0.59389488    -0.46100
C857        C  0.00688321  0.98133687  0.58447425    -0.05400
C858        C  0.02710269  0.95665121  0.58962155    -0.22800
H859        H  0.08335576  0.94023396  0.61062360     0.19000
H860        H  0.06529158  0.07687003  0.61998107     0.17800
H861        H  0.12447008  0.08819062  0.64768213     0.14100
H862        H  0.02332271  0.92566321  0.58451575     0.14000
H863        H  0.13487073  0.97006588  0.63742107     0.32100
H864        H  0.00937777  0.04268923  0.59282384     0.34900
C865        C  0.25307678  0.29907737  0.69920533     0.20500
C866        C  0.26829380  0.34285130  0.70503182    -0.39400
C867        C  0.25041782  0.36697492  0.69743179     0.19500
C868        C  0.21959146  0.34904990  0.68493319     0.22100
C869        C  0.20450757  0.30495488  0.67897193    -0.39900
C870        C  0.22250743  0.28049704  0.68665771     0.20900
N871        N  0.26505617  0.26970958  0.70468471    -0.33200
C872        C  0.24236943  0.23173779  0.69565546    -0.10700
C873        C  0.21518166  0.23691365  0.68420181    -0.29500
N874        N  0.20658398  0.37877988  0.68026840    -0.46100
C875        C  0.22923853  0.41544497  0.68999508    -0.05400
C876        C  0.25712452  0.40935214  0.70073748    -0.22800
H877        H  0.29198413  0.35689670  0.71493091     0.19000
H878        H  0.18021944  0.29062428  0.66926543     0.17800
H879        H  0.19318152  0.21235395  0.67539174     0.14100
H880        H  0.27864787  0.43243842  0.70999901     0.14000
H881        H  0.28759555  0.27541425  0.71410589     0.32100
H882        H  0.18320101  0.37410582  0.67128659     0.34900
C883        C  0.34516044  0.15514792  0.74817647     0.20500
C884        C  0.36111720  0.13624533  0.75975205    -0.39400
C885        C  0.38753071  0.16577156  0.77218289     0.19500
C886        C  0.39700008  0.21038544  0.77289725     0.22100
C887        C  0.38158960  0.22922389  0.76136596    -0.39900
C888        C  0.35548806  0.19998505  0.74908022     0.20900
N889        N  0.31802379  0.13438040  0.73544702    -0.33200
C890        C  0.31135301  0.16662725  0.72841453    -0.10700
C891        C  0.33443686  0.20781325  0.73656842    -0.29500
N892        N  0.42165062  0.23141154  0.78587872    -0.46100
C893        C  0.42833939  0.20031119  0.79363731    -0.05400
C894        C  0.40771589  0.15878916  0.78546988    -0.22800
H895        H  0.35309058  0.10118487  0.75925012     0.19000
H896        H  0.38887234  0.26404765  0.76204374     0.17800
H897        H  0.33484484  0.23921598  0.73391986     0.14100
H898        H  0.40726830  0.12781239  0.78884776     0.14000
H899        H  0.30428360  0.10049010  0.73198103     0.32100
H900        H  0.43322558  0.26506324  0.78924633     0.34900
C901        C  0.55687525  0.94373546  0.35354553     0.20500
C902        C  0.53494052  0.96448932  0.34591893    -0.39400
C903        C  0.54890626  0.00924945  0.35083004     0.19500
C904        C  0.58207805  0.03129699  0.36240136     0.22100
C905        C  0.60433318  0.01099848  0.36977478    -0.39900
C906        C  0.59046117  0.96666292  0.36490323     0.20900
N907        N  0.54772849  0.90038911  0.35210126    -0.33200
C908        C  0.57558895  0.89622305  0.36278575    -0.10700
C909        C  0.60297747  0.93700208  0.37075299    -0.29500
N910        N  0.58841231  0.07275031  0.36543822    -0.46100
C911        C  0.55932245  0.07769078  0.35570093    -0.05400
C912        C  0.53404350  0.03881259  0.34634605    -0.22800
H913        H  0.50822034  0.94677183  0.33717962     0.19000
H914        H  0.62979024  0.02807423  0.37898215     0.17800
H915        H  0.62727234  0.94344674  0.38023087     0.14100
H916        H  0.50798578  0.03280546  0.33764363     0.14000
H917        H  0.52293292  0.87493898  0.34489144     0.32100
H918        H  0.61118502  0.09625635  0.37368743     0.34900
C919        C  0.65187873  0.80709097  0.42115633     0.20500
C920        C  0.67420319  0.79102384  0.43118470    -0.39400
C921        C  0.69862563  0.81959105  0.44411785     0.19500
C922        C  0.69992715  0.86042516  0.44682589     0.22100
C923        C  0.67673990  0.87566239  0.43718141    -0.39900
C924        C  0.65314243  0.84771038  0.42427063     0.20900
N925        N  0.62970651  0.78894370  0.40726703    -0.33200
C926        C  0.61748552  0.81882369  0.40164715    -0.10700
C927        C  0.63119792  0.85544537  0.41202765    -0.29500
N928        N  0.72746132  0.88296092  0.45906720    -0.46100
C929        C  0.74428785  0.85670410  0.46434097    -0.05400
C930        C  0.72681389  0.81651114  0.45542736    -0.22800
H931        H  0.67419232  0.75976074  0.42872205     0.19000
H932        H  0.67863471  0.90804162  0.43917002     0.17800
H933        H  0.62730894  0.88495371  0.41047124     0.14100
H934        H  0.73466978  0.78950092  0.45674007     0.14000
H935        H  0.62465779  0.75921840  0.40172201     0.32100
H936        H  0.73490134  0.91479325  0.46340308     0.34900
C937        C  0.52492900  0.55991447  0.34525350     0.20500
C938        C  0.51294502  0.51786497  0.33852747    -0.39400
C939        C  0.52645708  0.49158445  0.34713280     0.19500
C940        C  0.55053534  0.50596597  0.36136588     0.22100
C941        C  0.56270628  0.54857446  0.36817098    -0.39900
C942        C  0.54876219  0.57513319  0.35951132     0.20900
N943        N  0.51494327  0.59019602  0.33927870    -0.33200
C944        C  0.53208988  0.62545952  0.34967180    -0.10700
C945        C  0.55378167  0.61762561  0.36254853    -0.29500
N946        N  0.55952231  0.47409684  0.36697551    -0.46100
C947        C  0.54075848  0.43960262  0.35615315    -0.05400
C948        C  0.51982099  0.44938432  0.34368816    -0.22800
H949        H  0.49415957  0.50634151  0.32738854     0.19000
H950        H  0.58137447  0.56002721  0.37932676     0.17800
H951        H  0.57030146  0.63952027  0.37272937     0.14100
H952        H  0.50242066  0.42854474  0.33336573     0.14000
H953        H  0.49695153  0.58664702  0.32869462     0.32100
H954        H  0.57733872  0.47574878  0.37740638     0.34900
C955        C  0.42401513  0.65664888  0.29511943     0.20500
C956        C  0.39939416  0.62487642  0.28318560    -0.39400
C957        C  0.37863843  0.63869528  0.27181791     0.19500
C958        C  0.38185642  0.68091438  0.27224424     0.22100
C959        C  0.40654308  0.71285254  0.28432732    -0.39900
C960        C  0.42762142  0.69901970  0.29578550     0.20900
N961        N  0.44690536  0.65132389  0.30714456    -0.33200
C962        C  0.46549219  0.69041191  0.31571398    -0.10700
C963        C  0.45427376  0.72124801  0.30902780    -0.29500
N964        N  0.35883106  0.68541714  0.25987957    -0.46100
C965        C  0.34110452  0.64569577  0.25163306    -0.05400
C966        C  0.35280958  0.61588171  0.25875587    -0.22800
H967        H  0.39674611  0.59179577  0.28275565     0.19000
H968        H  0.40924929  0.74593759  0.28474320     0.17800
H969        H  0.46426640  0.75509423  0.31322505     0.14100
H970        H  0.34355233  0.58191414  0.25489654     0.14000
H971        H  0.44963728  0.62251329  0.30935949     0.32100
H972        H  0.35539465  0.71359012  0.25723190     0.34900
C973        C  0.78569663  0.97187015  0.11031257     0.20500
C974        C  0.75850275  0.95334057  0.12390625    -0.39400
C975        C  0.75726822  0.98465839  0.13443335     0.19500
C976        C  0.78137326  0.03111292  0.13179138     0.22100
C977        C  0.80943010  0.04981502  0.11824342    -0.39900
C978        C  0.81061602  0.01827577  0.10760586     0.20900
N979        N  0.79054734  0.94885187  0.09816654    -0.33200
C980        C  0.81900524  0.98064714  0.08760987    -0.10700
C981        C  0.83258898  0.02446463  0.09308279    -0.29500
N982        N  0.77135124  0.05307336  0.14312223    -0.46100
C983        C  0.74035831  0.01995678  0.15281760    -0.05400
C984        C  0.73122209  0.97711210  0.14783493    -0.22800
H985        H  0.73853930  0.91703414  0.12587865     0.19000
H986        H  0.82780704  0.08599267  0.11590548     0.17800
H987        H  0.85453787  0.05632001  0.08706215     0.14100
H988        H  0.70695674  0.94450372  0.15291635     0.14000
H989        H  0.77523662  0.91358153  0.09709173     0.32100
H990        H  0.78318501  0.08791672  0.14379375     0.34900
C991        C  0.55048085  0.88344679  0.18302715     0.20500
C992        C  0.52406018  0.83792324  0.17848270    -0.39400
C993        C  0.48048289  0.81464167  0.18504928     0.19500
C994        C  0.46436310  0.83487112  0.19554144     0.22100
C995        C  0.49131190  0.88058993  0.20034015    -0.39900
C996        C  0.53513960  0.90426739  0.19357532     0.20900
N997        N  0.59216949  0.91286228  0.17774368    -0.33200
C998        C  0.60422022  0.95311123  0.18489099    -0.10700
C999        C  0.56950440  0.94927397  0.19495216    -0.29500
N1000       N  0.42071264  0.80562412  0.19936186    -0.46100
C1001       C  0.40921071  0.76694012  0.19105137    -0.05400
C1002       C  0.44577415  0.77128593  0.18211665    -0.22800
H1003       H  0.53615252  0.82213976  0.17004584     0.19000
H1004       H  0.47867827  0.89680184  0.20835379     0.17800
H1005       H  0.56909173  0.97578906  0.20200504     0.14100
H1006       H  0.44648299  0.74643158  0.17418434     0.14000
H1007       H  0.61117676  0.90586494  0.16956805     0.32100
H1008       H  0.39973436  0.81197624  0.20677589     0.34900
C1009       C  0.67499722  0.19998826  0.24582011     0.20500
C1010       C  0.67901848  0.23345984  0.25651268    -0.39400
C1011       C  0.64999075  0.21773062  0.26973983     0.19500
C1012       C  0.61875652  0.17217466  0.27206166     0.22100
C1013       C  0.61444133  0.13856171  0.26120962    -0.39900
C1014       C  0.64401422  0.15428837  0.24797866     0.20900
N1015       N  0.70114483  0.20628703  0.23303318    -0.33200
C1016       C  0.68726259  0.16443931  0.22693313    -0.10700
C1017       C  0.65124957  0.13089781  0.23581140    -0.29500
N1018       N  0.59591427  0.16620956  0.28585737    -0.46100
C1019       C  0.61329651  0.20826168  0.29233730    -0.05400
C1020       C  0.64699704  0.24121643  0.28261004    -0.22800
H1021       H  0.70394720  0.26902588  0.25489977     0.19000
H1022       H  0.59075347  0.10282663  0.26315346     0.17800
H1023       H  0.63444658  0.09447968  0.23412753     0.14100
H1024       H  0.66681841  0.27745968  0.28472644     0.14000
H1025       H  0.72803338  0.23729642  0.22904562     0.32100
H1026       H  0.57062993  0.13549344  0.29066948     0.34900
C1027       C  0.89165590  0.27620427  0.18729211     0.20500
C1028       C  0.93347651  0.29735032  0.17907872    -0.39400
C1029       C  0.96551437  0.34117926  0.18450435     0.19500
C1030       C  0.95632616  0.36194680  0.19709948     0.22100
C1031       C  0.91468402  0.34125776  0.20508858    -0.39900
C1032       C  0.88303706  0.29789172  0.19970800     0.20900
N1033       N  0.85567477  0.23422991  0.18493073    -0.33200
C1034       C  0.82436169  0.22990284  0.19596535    -0.10700
C1035       C  0.84038252  0.26895724  0.20528964    -0.29500
N1036       N  0.99223893  0.40266467  0.20039147    -0.46100
C1037       C  0.02493888  0.40841064  0.18984185    -0.05400
C1038       C  0.00955942  0.37086084  0.17963150    -0.22800
H1039       H  0.94074247  0.28078152  0.16937744     0.19000
H1040       H  0.90763958  0.35752576  0.21495882     0.17800
H1041       H  0.82324036  0.27517868  0.21507910     0.14100
H1042       H  0.02821675  0.36576334  0.17011308     0.14000
H1043       H  0.85271898  0.21017936  0.17649574     0.32100
H1044       H  0.99436543  0.42513418  0.20935657     0.34900
C1045       C  0.86645022  0.25834197  0.35791502     0.20500
C1046       C  0.82396324  0.23740735  0.36572007    -0.39400
C1047       C  0.79350139  0.25171975  0.36066929     0.19500
C1048       C  0.80476657  0.28426251  0.34881782     0.22100
C1049       C  0.84687204  0.30514452  0.34116605    -0.39900
C1050       C  0.87691314  0.29089595  0.34614823     0.20900
N1051       N  0.90130660  0.25037105  0.35998969    -0.33200
C1052       C  0.93362371  0.27815016  0.34934018    -0.10700
C1053       C  0.91941208  0.30380035  0.34062931    -0.29500
N1054       N  0.77034125  0.29170823  0.34587540    -0.46100
C1055       C  0.73650645  0.26383623  0.35589819    -0.05400
C1056       C  0.74955920  0.23829207  0.36538647    -0.22800
H1057       H  0.81510384  0.21166567  0.37486186     0.19000
H1058       H  0.85545288  0.33034813  0.33183176     0.17800
H1059       H  0.93756623  0.32825797  0.33121210     0.14100
H1060       H  0.72951790  0.21312583  0.37436912     0.14000
H1061       H  0.90269143  0.22716096  0.36786076     0.32100
H1062       H  0.76993302  0.31441059  0.33750131     0.34900
C1063       C  0.11012792  0.37364346  0.29541389     0.20500
C1064       C  0.14818530  0.39581631  0.28518177    -0.39400
C1065       C  0.14360418  0.42001663  0.27220789     0.19500
C1066       C  0.10410564  0.42151512  0.26971321     0.22100
C1067       C  0.06637868  0.39926219  0.27972939    -0.39900
C1068       C  0.07107206  0.37566276  0.29258992     0.20900
N1069       N  0.10546227  0.34935516  0.30888000    -0.33200
C1070       C  0.06313752  0.33641703  0.31448407    -0.10700
C1071       C  0.04103571  0.35223386  0.30456709    -0.29500
N1072       N  0.10795527  0.44719783  0.25697733    -0.46100
C1073       C  0.15026774  0.46262257  0.25112694    -0.05400
C1074       C  0.17372365  0.44632472  0.26025985    -0.22800
H1075       H  0.17912355  0.39489526  0.28728001     0.19000
H1076       H  0.03571015  0.40084093  0.27779400     0.17800
H1077       H  0.00733816  0.34763218  0.30602927     0.14100
H1078       H  0.20814445  0.45322473  0.25851320     0.14000
H1079       H  0.12948711  0.34255913  0.31399265     0.32100
H1080       H  0.08318701  0.45403262  0.25259616     0.34900
C1081       C  0.98175443  0.13024387  0.41672717     0.20500
C1082       C  0.94463914  0.10988695  0.42742321    -0.39400
C1083       C  0.94882473  0.08482196  0.44017507     0.19500
C1084       C  0.98702145  0.08060560  0.44201365     0.22100
C1085       C  0.02374375  0.10073013  0.43143144    -0.39900
C1086       C  0.01950833  0.12543809  0.41881966     0.20900
N1087       N  0.98692847  0.15600772  0.40363162    -0.33200
C1088       C  0.02833365  0.16728053  0.39752292    -0.10700
C1089       C  0.04926727  0.14866812  0.40671646    -0.29500
N1090       N  0.98320732  0.05526862  0.45487844    -0.46100
C1091       C  0.94221707  0.04284839  0.46145976    -0.05400
C1092       C  0.91962440  0.06067242  0.45264250    -0.22800
H1093       H  0.91484470  0.11326256  0.42594401     0.19000
H1094       H  0.05355364  0.09734514  0.43290294     0.17800
H1095       H  0.08224783  0.15185036  0.40482218     0.14100
H1096       H  0.88643036  0.05644302  0.45500593     0.14000
H1097       H  0.96397997  0.16525582  0.39917535     0.32100
H1098       H  0.00719395  0.04687852  0.45891294     0.34900
C1099       C  0.28614389  0.22093465  0.36102012     0.20500
C1100       C  0.24267285  0.19676979  0.36766302    -0.39400
C1101       C  0.21342731  0.21317298  0.36392847     0.19500
C1102       C  0.22596948  0.25073305  0.35424138     0.22100
C1103       C  0.26968037  0.27483056  0.34740631    -0.39900
C1104       C  0.29927385  0.25835810  0.35118726     0.20900
N1105       N  0.32054679  0.21302780  0.36343675    -0.33200
C1106       C  0.35619730  0.24551837  0.35509939    -0.10700
C1107       C  0.34425084  0.27434704  0.34716769    -0.29500
N1108       N  0.19184496  0.26012858  0.35319050    -0.46100
C1109       C  0.15784363  0.22826304  0.36240617    -0.05400
C1110       C  0.17020238  0.19851667  0.36917386    -0.22800
H1111       H  0.23265021  0.16784676  0.37549820     0.19000
H1112       H  0.28015942  0.30461756  0.33999410     0.17800
H1113       H  0.36587139  0.30371071  0.33986569     0.14100
H1114       H  0.15046007  0.17041035  0.37724700     0.14000
H1115       H  0.31992335  0.18732370  0.37051408     0.32100
H1116       H  0.19209952  0.28699216  0.34700137     0.34900
C1117       C  0.55217612  0.89982098  0.03650386     0.20500
C1118       C  0.58110533  0.88550880  0.04267141    -0.39400
C1119       C  0.62217153  0.90147107  0.03460067     0.19500
C1120       C  0.63402226  0.92991799  0.02139727     0.22100
C1121       C  0.60497317  0.94477378  0.01526401    -0.39900
C1122       C  0.56325747  0.92837870  0.02335436     0.20900
N1123       N  0.51093005  0.88808729  0.04200593    -0.33200
C1124       C  0.49482559  0.90900765  0.03241878    -0.10700
C1125       C  0.52653728  0.93475211  0.02056304    -0.29500
N1126       N  0.67528476  0.93985166  0.01594881    -0.46100
C1127       C  0.68926646  0.91743837  0.02585009    -0.05400
C1128       C  0.65697005  0.89319794  0.03758008    -0.22800
H1129       H  0.57202034  0.86310215  0.05295252     0.19000
H1130       H  0.61396392  0.96697304  0.00493383     0.17800
H1131       H  0.52311599  0.95494374  0.01120518     0.14100
H1132       H  0.65877944  0.87238430  0.04707529     0.14000
H1133       H  0.49463037  0.86671404  0.05176842     0.32100
H1134       H  0.69285004  0.96063845  0.00620717     0.34900
C1135       C  0.28611492  0.75157057  0.10746049     0.20500
C1136       C  0.27708535  0.77369792  0.09488828    -0.39400
C1137       C  0.31336346  0.79864318  0.08422453     0.19500
C1138       C  0.35485116  0.80081211  0.08612857     0.22100
C1139       C  0.36372232  0.77877136  0.09851481    -0.39900
C1140       C  0.32789467  0.75420868  0.10904299     0.20900
N1141       N  0.25797026  0.72584394  0.11927825    -0.33200
C1142       C  0.28244564  0.71227300  0.12822819    -0.10700
C1143       C  0.32608569  0.72933704  0.12219759    -0.29500
N1144       N  0.38393366  0.82631679  0.07473602    -0.46100
C1145       C  0.36147091  0.84100819  0.06530888    -0.05400
C1146       C  0.31705308  0.82450533  0.07079331    -0.22800
H1147       H  0.24449784  0.77174831  0.09355181     0.19000
H1148       H  0.39632928  0.78073202  0.09986806     0.17800
H1149       H  0.35296792  0.72425991  0.12684186     0.14100
H1150       H  0.29119431  0.83038878  0.06567107     0.14000
H1151       H  0.22439513  0.71791316  0.12110211     0.32100
H1152       H  0.41739334  0.83324520  0.07349913     0.34900
C1153       C  0.40598639  0.04838929  0.96128834     0.20500
C1154       C  0.39970089  0.07345878  0.94936830    -0.39400
C1155       C  0.43501733  0.09478752  0.93839883     0.19500
C1156       C  0.47394228  0.09150454  0.93906288     0.22100
C1157       C  0.48038651  0.06620124  0.95117227    -0.39900
C1158       C  0.44463680  0.04467496  0.96234772     0.20900
N1159       N  0.37699934  0.02563026  0.97308844    -0.33200
C1160       C  0.39674471  0.00703130  0.98201359    -0.10700
C1161       C  0.43919654  0.01793519  0.97571748    -0.29500
N1162       N  0.50201742  0.11502092  0.92686563    -0.46100
C1163       C  0.48023833  0.13299488  0.91858589    -0.05400
C1164       C  0.43858115  0.12114986  0.92549497    -0.22800
H1165       H  0.36935824  0.07619937  0.94870663     0.19000
H1166       H  0.51074245  0.06351196  0.95183923     0.17800
H1167       H  0.46278812  0.00809141  0.98032706     0.14100
H1168       H  0.41395604  0.13041321  0.92153751     0.14000
H1169       H  0.34552601  0.02331600  0.97499049     0.32100
H1170       H  0.53367907  0.11848914  0.92431596     0.34900
C1171       C  0.19793439  0.92736967  0.02437338     0.20500
C1172       C  0.15503370  0.90513899  0.03183654    -0.39400
C1173       C  0.12445231  0.91937870  0.02693785     0.19500
C1174       C  0.13593547  0.95308091  0.01552711     0.22100
C1175       C  0.17861114  0.97542166  0.00823723    -0.39900
C1176       C  0.20882258  0.96116700  0.01306355     0.20900
N1177       N  0.23281815  0.91948879  0.02637406    -0.33200
C1178       C  0.26564165  0.94850372  0.01613839    -0.10700
C1179       C  0.25177255  0.97495066  0.00774790    -0.29500
N1180       N  0.10112192  0.96000995  0.01262795    -0.46100
C1181       C  0.06693362  0.93068448  0.02226892    -0.05400
C1182       C  0.08012429  0.90473549  0.03144157    -0.22800
H1183       H  0.14593673  0.87842608  0.04060389     0.19000
H1184       H  0.18743924  0.00157993  0.99925458     0.17800
H1185       H  0.27041344  0.00040862  0.99866596     0.14100
H1186       H  0.05992794  0.87853394  0.04009714     0.14000
H1187       H  0.23387335  0.89545379  0.03390649     0.32100
H1188       H  0.10072279  0.98340046  0.00457693     0.34900
C1189       C  0.35644536  0.51445718  0.58806744     0.20500
C1190       C  0.36289804  0.54738475  0.59937845    -0.39400
C1191       C  0.32759992  0.53512658  0.61026595     0.19500
C1192       C  0.28850966  0.49299970  0.61010844     0.22100
C1193       C  0.28202528  0.45945551  0.59869828    -0.39900
C1194       C  0.31772425  0.47203155  0.58755146     0.20900
N1195       N  0.38556037  0.51894011  0.57651666    -0.33200
C1196       C  0.36605240  0.47933692  0.56829407    -0.10700
C1197       C  0.32330523  0.44885335  0.57476244    -0.29500
N1198       N  0.26011369  0.49066534  0.62188058    -0.46100
C1199       C  0.28172789  0.53177183  0.62936776    -0.05400
C1200       C  0.32381777  0.56010609  0.62242195    -0.22800
H1201       H  0.39331660  0.58049011  0.59960762     0.19000
H1202       H  0.25154879  0.42640728  0.59844916     0.17800
H1203       H  0.29986680  0.41465326  0.57076207     0.14100
H1204       H  0.34845544  0.59456955  0.62580409     0.14000
H1205       H  0.41721017  0.54769666  0.57439290     0.32100
H1206       H  0.22819929  0.46305968  0.62462385     0.34900
C1207       C  0.56246683  0.60797152  0.54136526     0.20500
C1208       C  0.59287030  0.65029986  0.54796295    -0.39400
C1209       C  0.63046175  0.67835002  0.53846913     0.19500
C1210       C  0.63780837  0.66527440  0.52355655     0.22100
C1211       C  0.60736667  0.62236703  0.51697476    -0.39900
C1212       C  0.56917394  0.59415559  0.52648901     0.20900
N1213       N  0.52290692  0.57681278  0.54772906    -0.33200
C1214       C  0.50351104  0.54257909  0.53691534    -0.10700
C1215       C  0.53157857  0.55179327  0.52349577    -0.29500
N1216       N  0.67616285  0.69891449  0.51694145    -0.46100
C1217       C  0.69283834  0.73343488  0.52776711    -0.05400
C1218       C  0.66514814  0.72170879  0.54130114    -0.22800
H1219       H  0.58704960  0.66106335  0.55951692     0.19000
H1220       H  0.61252755  0.61213378  0.50522541     0.17800
H1221       H  0.52457327  0.53137213  0.51277792     0.14100
H1222       H  0.66984275  0.74219647  0.55185082     0.14000
H1223       H  0.50930886  0.57943905  0.55865968     0.32100
H1224       H  0.68997696  0.69850722  0.50578442     0.34900
C1225       C  0.13734727  0.14675778  0.51809434     0.20500
C1226       C  0.17998848  0.16616993  0.51084871    -0.39400
C1227       C  0.21160849  0.20968384  0.51609248     0.19500
C1228       C  0.20204965  0.23273647  0.52772925     0.22100
C1229       C  0.15910433  0.21285895  0.53523696    -0.39900
C1230       C  0.12704364  0.16882334  0.52991009     0.20900
N1231       N  0.10153263  0.10603239  0.51475405    -0.33200
C1232       C  0.06770899  0.10140427  0.52450664    -0.10700
C1233       C  0.08220277  0.13987696  0.53421837    -0.29500
N1234       N  0.23788981  0.27506032  0.52972846    -0.46100
C1235       C  0.26982976  0.27837306  0.51912546    -0.05400
C1236       C  0.25458975  0.23810970  0.51061589    -0.22800
H1237       H  0.18772293  0.14893671  0.50151251     0.19000
H1238       H  0.15097162  0.23059370  0.54425363     0.17800
H1239       H  0.06258223  0.14589880  0.54310374     0.14100
H1240       H  0.27211381  0.23108392  0.50118084     0.14000
H1241       H  0.10028892  0.08267972  0.50632768     0.32100
H1242       H  0.23993985  0.30035642  0.53737640     0.34900
C1243       C  0.47367590  0.34638844  0.43929489     0.20500
C1244       C  0.48076756  0.37741342  0.45176027    -0.39400
C1245       C  0.44504340  0.36315435  0.46297558     0.19500
C1246       C  0.40565293  0.32147744  0.46160569     0.22100
C1247       C  0.39847268  0.29103536  0.44918770    -0.39900
C1248       C  0.43391598  0.30496664  0.43820812     0.20900
N1249       N  0.50215716  0.35075831  0.42725607    -0.33200
C1250       C  0.47995025  0.31166984  0.41861797    -0.10700
C1251       C  0.43741851  0.28248770  0.42514300    -0.29500
N1252       N  0.37733598  0.31465134  0.47376495    -0.46100
C1253       C  0.39823992  0.35192877  0.48322660    -0.05400
C1254       C  0.44073236  0.38338922  0.47686821    -0.22800
H1255       H  0.51188023  0.40975130  0.45278170     0.19000
H1256       H  0.36766505  0.25836746  0.44830182     0.17800
H1257       H  0.41233119  0.24910920  0.42089651     0.14100
H1258       H  0.46529698  0.41595970  0.48185059     0.14000
H1259       H  0.53451494  0.37837886  0.42507847     0.32100
H1260       H  0.34562545  0.28571092  0.47559718     0.34900
C1261       C  0.68958254  0.46955941  0.75288028     0.20500
C1262       C  0.69340354  0.43974255  0.76342909    -0.39400
C1263       C  0.65919933  0.41958763  0.77491932     0.19500
C1264       C  0.62364124  0.42830584  0.77594130     0.22100
C1265       C  0.61979318  0.45845137  0.76527768    -0.39900
C1266       C  0.65430683  0.47877289  0.75362624     0.20900
N1267       N  0.71812176  0.49263743  0.74097218    -0.33200
C1268       C  0.70135109  0.51694719  0.73385104    -0.10700
C1269       C  0.66137528  0.50934644  0.74138168    -0.29500
N1270       N  0.59594280  0.40481480  0.78821559    -0.46100
C1271       C  0.61447780  0.38137585  0.79493401    -0.05400
C1272       C  0.65382036  0.38975340  0.78691352    -0.22800
H1273       H  0.72117070  0.43282098  0.76274886     0.19000
H1274       H  0.59218020  0.46556879  0.76601378     0.17800
H1275       H  0.64055025  0.52409110  0.73835248     0.14100
H1276       H  0.67586095  0.37614821  0.78960724     0.14000
H1277       H  0.74738805  0.49164954  0.73785612     0.32100
H1278       H  0.56673173  0.40511841  0.79189645     0.34900
C1279       C  0.89024269  0.57230047  0.70338907     0.20500
C1280       C  0.92037069  0.56011890  0.70994058    -0.39400
C1281       C  0.95996401  0.57357063  0.70120174     0.19500
C1282       C  0.96928635  0.59750725  0.68693684     0.22100
C1283       C  0.93884071  0.60999561  0.68032140    -0.39900
C1284       C  0.89869712  0.59640415  0.68918506     0.20900
N1285       N  0.85042195  0.56294518  0.70963792    -0.33200
C1286       C  0.83261930  0.58112729  0.69955254    -0.10700
C1287       C  0.86172061  0.60251708  0.68652961    -0.29500
N1288       N  0.00982113  0.60605878  0.68111436    -0.46100
C1289       C  0.02581641  0.58726588  0.69184957    -0.05400
C1290       C  0.99555169  0.56679039  0.70448607    -0.22800
H1291       H  0.91339267  0.54140638  0.72109621     0.19000
H1292       H  0.94586648  0.62878909  0.66918812     0.17800
H1293       H  0.85655304  0.61990158  0.67656865     0.14100
H1294       H  0.99921458  0.54943343  0.71478789     0.14000
H1295       H  0.83627380  0.54515340  0.72028884     0.32100
H1296       H  0.02560674  0.62359065  0.67058863     0.34900
C1297       C  0.47109546  0.61900672  0.68195055     0.20500
C1298       C  0.51256219  0.63910282  0.67389164    -0.39400
C1299       C  0.54478881  0.62917149  0.67997215     0.19500
C1300       C  0.53689258  0.60111795  0.69307930     0.22100
C1301       C  0.49488407  0.58065054  0.70121959    -0.39900
C1302       C  0.46225939  0.59084816  0.69511268     0.20900
N1303       N  0.43551032  0.62415454  0.67847866    -0.33200
C1304       C  0.40328253  0.59928191  0.68947565    -0.10700
C1305       C  0.41855033  0.57777696  0.70009274    -0.29500
N1306       N  0.57393640  0.59744859  0.69624236    -0.46100
C1307       C  0.60505580  0.62359963  0.68497856    -0.05400
C1308       C  0.58786614  0.64372307  0.67473917    -0.22800
H1309       H  0.51937120  0.66118702  0.66363337     0.19000
H1310       H  0.48818111  0.55873199  0.71151527     0.17800
H1311       H  0.40036048  0.55600509  0.71013946     0.14100
H1312       H  0.60465177  0.66597628  0.66463759     0.14000
H1313       H  0.43350449  0.64384307  0.66922136     0.32100
H1314       H  0.57772738  0.57844295  0.70534224     0.34900
C1315       C  0.81061211  0.76434503  0.60775234     0.20500
C1316       C  0.81502683  0.73616415  0.61914123    -0.39400
C1317       C  0.78515200  0.72335443  0.63230516     0.19500
C1318       C  0.75382617  0.73786345  0.63381328     0.22100
C1319       C  0.74971330  0.76599488  0.62260752    -0.39900
C1320       C  0.77898912  0.77834085  0.60955904     0.20900
N1321       N  0.83393924  0.78086540  0.59399723    -0.33200
C1322       C  0.81629135  0.80494561  0.58718074    -0.10700
C1323       C  0.78211605  0.80409960  0.59653991    -0.29500
N1324       N  0.72771027  0.71963738  0.64670323    -0.46100
C1325       C  0.74193820  0.69297230  0.65361357    -0.05400
C1326       C  0.77814760  0.69454426  0.64511177    -0.22800
H1327       H  0.83915901  0.72447780  0.61771475     0.19000
H1328       H  0.72470704  0.77665437  0.62378886     0.17800
H1329       H  0.76223601  0.82030545  0.59414035     0.14100
H1330       H  0.79540612  0.67569795  0.64753160     0.14000
H1331       H  0.85977572  0.77585555  0.58949540     0.32100
H1332       H  0.70081694  0.72418408  0.65031906     0.34900
C1333       C  0.21975358  0.95509965  0.86860002     0.20500
C1334       C  0.25265167  0.99484912  0.87602343    -0.39400
C1335       C  0.29233188  0.02077268  0.86723114     0.19500
C1336       C  0.29915831  0.00836926  0.85211917     0.22100
C1337       C  0.26593109  0.96809371  0.84463605    -0.39900
C1338       C  0.22578991  0.94177218  0.85353403     0.20900
N1339       N  0.17925120  0.92524240  0.87465409    -0.33200
C1340       C  0.15870654  0.89203909  0.86354142    -0.10700
C1341       C  0.18665288  0.90095476  0.85009778    -0.29500
N1342       N  0.33995768  0.03997450  0.84629321    -0.46100
C1343       C  0.35859689  0.07247333  0.85784659    -0.05400
C1344       C  0.32985301  0.06138274  0.87104816    -0.22800
H1345       H  0.24756359  0.00500357  0.88780480     0.19000
H1346       H  0.27085036  0.95815267  0.83280066     0.17800
H1347       H  0.17931249  0.88064198  0.83933621     0.14100
H1348       H  0.33545762  0.08080216  0.88195508     0.14000
H1349       H  0.16644045  0.92737318  0.88582377     0.32100
H1350       H  0.35389112  0.03978667  0.83513778     0.34900
C1351       C  0.98066610  0.81565016  0.91708494     0.20500
C1352       C  0.94562096  0.79757333  0.92866813    -0.39400
C1353       C  0.94692413  0.82869373  0.94020268     0.19500
C1354       C  0.98063845  0.87396357  0.94010918     0.22100
C1355       C  0.01532050  0.89178208  0.92868283    -0.39900
C1356       C  0.01396771  0.86102896  0.91730201     0.20900
N1357       N  0.98770507  0.79399813  0.90474374    -0.33200
C1358       C  0.02582630  0.82632267  0.89725524    -0.10700
C1359       C  0.04288416  0.86822734  0.90483778    -0.29500
N1360       N  0.97550071  0.89661768  0.95231802    -0.46100
C1361       C  0.93824857  0.86594919  0.96048073    -0.05400
C1362       C  0.91914379  0.82304551  0.95324058    -0.22800
H1363       H  0.91948912  0.76210486  0.92873194     0.19000
H1364       H  0.04172789  0.92716389  0.92870123     0.17800
H1365       H  0.07271833  0.90005527  0.90162216     0.14100
H1366       H  0.88966082  0.79189043  0.95717613     0.14000
H1367       H  0.96814198  0.75970922  0.90167904     0.32100
H1368       H  0.99659355  0.93097309  0.95504013     0.34900
C1369       C  0.86688352  0.57237393  0.85939404     0.20500
C1370       C  0.82286688  0.55249135  0.86597222    -0.39400
C1371       C  0.79320932  0.50684904  0.86168321     0.19500
C1372       C  0.80651015  0.48327848  0.85157782     0.22100
C1373       C  0.85027362  0.50279567  0.84522634    -0.39900
C1374       C  0.87966681  0.54790569  0.84954519     0.20900
N1375       N  0.90099524  0.61583115  0.86071843    -0.33200
C1376       C  0.93519028  0.61840621  0.85151516    -0.10700
C1377       C  0.92309048  0.57662030  0.84457182    -0.29500
N1378       N  0.77219322  0.44116046  0.84883015    -0.46100
C1379       C  0.73652510  0.43734366  0.85731248    -0.05400
C1380       C  0.74822956  0.47753967  0.86556719    -0.22800
H1381       H  0.81224182  0.57129408  0.87357050     0.19000
H1382       H  0.86047220  0.48443239  0.83721729     0.17800
H1383       H  0.94291152  0.56870391  0.83639265     0.14100
H1384       H  0.72657821  0.48454567  0.87312987     0.14000
H1385       H  0.90050821  0.64218471  0.86698673     0.32100
H1386       H  0.77302860  0.41650543  0.84158419     0.34900
C1387       C  0.07782835  0.65469082  0.79727094     0.20500
C1388       C  0.07251528  0.62280111  0.78566799    -0.39400
C1389       C  0.10761384  0.63726161  0.77451564     0.19500
C1390       C  0.14557163  0.68025037  0.77480274     0.22100
C1391       C  0.15114439  0.71237254  0.78663170    -0.39900
C1392       C  0.11547868  0.69787417  0.79787033     0.20900
N1393       N  0.04837834  0.64876839  0.80891465    -0.33200
C1394       C  0.06676179  0.68828220  0.81719911    -0.10700
C1395       C  0.10883658  0.72007274  0.81068670    -0.29500
N1396       N  0.17306295  0.68562236  0.76229097    -0.46100
C1397       C  0.15183756  0.64572075  0.75408461    -0.05400
C1398       C  0.11121272  0.61485737  0.76146619    -0.22800
H1399       H  0.04270766  0.58926459  0.78520341     0.19000
H1400       H  0.18050835  0.74620730  0.78689442     0.17800
H1401       H  0.13125326  0.75449922  0.81471221     0.14100
H1402       H  0.08687615  0.58080496  0.75756373     0.14000
H1403       H  0.01728483  0.61930184  0.81103104     0.32100
H1404       H  0.20368443  0.71470668  0.75935451     0.34900
C1405       C  0.39225938  0.14940164  0.27394561     0.20500
C1406       C  0.37402026  0.11380486  0.26291827    -0.39400
C1407       C  0.34737936  0.11708415  0.25084977     0.19500
C1408       C  0.33906360  0.15290279  0.24968495     0.22100
C1409       C  0.35755094  0.18890071  0.26082301    -0.39900
C1410       C  0.38457819  0.18569532  0.27301285     0.20900
N1411       N  0.41847387  0.15359442  0.28653765    -0.33200
C1412       C  0.42788616  0.19289368  0.29382344    -0.10700
C1413       C  0.40745156  0.21411612  0.28574789    -0.29500
N1414       N  0.31190968  0.14705014  0.23698990    -0.46100
C1415       C  0.30331338  0.10717647  0.23021280    -0.05400
C1416       C  0.32497336  0.08786832  0.23856255    -0.22800
H1417       H  0.38004345  0.08545184  0.26370598     0.19000
H1418       H  0.35131129  0.21710321  0.26009359     0.17800
H1419       H  0.40889539  0.24573448  0.28883442     0.14100
H1420       H  0.32416729  0.05622505  0.23603775     0.14000
H1421       H  0.42919674  0.13088391  0.28997723     0.32100
H1422       H  0.29992345  0.16849030  0.23325545     0.34900
C1423       C  0.25483779  0.92253485  0.19731171     0.20500
C1424       C  0.27272520  0.89522270  0.20208275    -0.39400
C1425       C  0.25259243  0.85205060  0.19519429     0.19500
C1426       C  0.21726902  0.83691502  0.18429065     0.22100
C1427       C  0.19949818  0.86467670  0.17936173    -0.39900
C1428       C  0.21974604  0.90828220  0.18634450     0.20900
N1429       N  0.26741781  0.96417580  0.20272032    -0.33200
C1430       C  0.24047841  0.97731424  0.19524843    -0.10700
C1431       C  0.21019460  0.94338791  0.18481121    -0.29500
N1432       N  0.20307057  0.79349378  0.18009860    -0.46100
C1433       C  0.22948823  0.78124633  0.18855458    -0.05400
C1434       C  0.26086689  0.81706530  0.19797794    -0.22800
H1435       H  0.29981738  0.90649164  0.21081931     0.19000
H1436       H  0.17150980  0.85292025  0.17099373     0.17800
H1437       H  0.18415498  0.94385075  0.17747914     0.14100
H1438       H  0.28576994  0.81714126  0.20609818     0.14000
H1439       H  0.29267114  0.98237221  0.21123572     0.32100
H1440       H  0.17648846  0.77320337  0.17230480     0.34900
C1441       C  0.09021631  0.06497314  0.12783454     0.20500
C1442       C  0.06536874  0.07213558  0.11600815    -0.39400
C1443       C  0.04310400  0.03699437  0.10497974     0.19500
C1444       C  0.04534879  0.99748195  0.10553531     0.22100
C1445       C  0.07058521  0.99028993  0.11747346    -0.39900
C1446       C  0.09302510  0.02578613  0.12867892     0.20900
N1447       N  0.11331990  0.09330593  0.13978102    -0.33200
C1448       C  0.13128582  0.07259263  0.14856064    -0.10700
C1449       C  0.11961853  0.03022118  0.14199467    -0.29500
N1450       N  0.02081489  0.96950504  0.09346085    -0.46100
C1451       C  0.00314936  0.99178946  0.08530494    -0.05400
C1452       C  0.01631401  0.03384374  0.09220698    -0.22800
H1453       H  0.06328115  0.10286940  0.11550619     0.19000
H1454       H  0.07239943  0.95942777  0.11804049     0.17800
H1455       H  0.12864846  0.00587894  0.14646145     0.14100
H1456       H  0.00758372  0.05894033  0.08834344     0.14000
H1457       H  0.11618365  0.12493813  0.14190169     0.32100
H1458       H  0.01647865  0.93748911  0.09091025     0.34900
C1459       C  0.20820783  0.26717352  0.19308026     0.20500
C1460       C  0.22988000  0.30962041  0.20088594    -0.39400
C1461       C  0.21748906  0.34125704  0.19549639     0.19500
C1462       C  0.18605655  0.33107134  0.18333149     0.22100
C1463       C  0.16428912  0.28895616  0.17573288    -0.39900
C1464       C  0.17653620  0.25772076  0.18107941     0.20900
N1465       N  0.21522858  0.23172995  0.19516930    -0.33200
C1466       C  0.18779403  0.20013913  0.18427906    -0.10700
C1467       C  0.16305432  0.21520702  0.17547871    -0.29500
N1468       N  0.18032301  0.36640525  0.18011222    -0.46100
C1469       C  0.20804317  0.39970018  0.19030877    -0.05400
C1470       C  0.23196583  0.38547829  0.20014345    -0.22800
H1471       H  0.25493109  0.31766361  0.21021391     0.19000
H1472       H  0.14001794  0.28128223  0.16614049     0.17800
H1473       H  0.13938297  0.19790172  0.16578429     0.14100
H1474       H  0.25657037  0.40483813  0.20935478     0.14000
H1475       H  0.23796887  0.22970168  0.20308680     0.32100
H1476       H  0.15864232  0.36765963  0.17149323     0.34900
C1477       C  0.30080181  0.01129212  0.35937574     0.20500
C1478       C  0.25769000  0.98128599  0.36591559    -0.39400
C1479       C  0.23145479  0.94054517  0.35737333     0.19500
C1480       C  0.24738261  0.93106754  0.34345970     0.22100
C1481       C  0.29015037  0.96071152  0.33700579    -0.39900
C1482       C  0.31611650  0.00095687  0.34549488     0.20900
N1483       N  0.33217864  0.05246351  0.36490283    -0.33200
C1484       C  0.36739595  0.06798785  0.35438843    -0.10700
C1485       C  0.35855018  0.03665687  0.34219648    -0.29500
N1486       N  0.21672220  0.89082962  0.33745822    -0.46100
C1487       C  0.18056606  0.87379038  0.34751118    -0.05400
C1488       C  0.18831241  0.90386421  0.36016996    -0.22800
H1489       H  0.24547300  0.98913839  0.37676005     0.19000
H1490       H  0.30227349  0.95300614  0.32609866     0.17800
H1491       H  0.38010200  0.03983108  0.33213024     0.14100
H1492       H  0.16566611  0.89954534  0.36999476     0.14000
H1493       H  0.32968003  0.06903731  0.37507440     0.32100
H1494       H  0.22039969  0.87583413  0.32704539     0.34900
C1495       C  0.15404987  0.70627362  0.26709783     0.20500
C1496       C  0.16458033  0.74548435  0.27579497    -0.39400
C1497       C  0.13767407  0.73912635  0.28932441     0.19500
C1498       C  0.10248335  0.69704339  0.29398551     0.22100
C1499       C  0.09129544  0.65757532  0.28503401    -0.39900
C1500       C  0.11858832  0.66392059  0.27140226     0.20900
N1501       N  0.17630206  0.70347824  0.25423220    -0.33200
C1502       C  0.15506093  0.65900152  0.25011981    -0.10700
C1503       C  0.11859158  0.63318230  0.26048902    -0.29500
N1504       N  0.08417261  0.70040489  0.30799589    -0.46100
C1505       C  0.10848409  0.74500205  0.31215882    -0.05400
C1506       C  0.14169114  0.76987963  0.30070542    -0.22800
H1507       H  0.19267152  0.77849089  0.27253532     0.19000
H1508       H  0.06429369  0.62433438  0.28863888     0.17800
H1509       H  0.09588430  0.59678562  0.26028487     0.14100
H1510       H  0.16676738  0.80572491  0.30097759     0.14000
H1511       H  0.20450915  0.73028696  0.24864449     0.32100
H1512       H  0.05808074  0.67402305  0.31453207     0.34900
C1513       C  0.98942031  0.81865365  0.41803013     0.20500
C1514       C  0.00218633  0.85712741  0.42776984    -0.39400
C1515       C  0.97389474  0.85039339  0.44113149     0.19500
C1516       C  0.93608350  0.80861489  0.44444018     0.22100
C1517       C  0.92373268  0.77046021  0.43490030    -0.39900
C1518       C  0.95164259  0.77720926  0.42166961     0.20900
N1519       N  0.00884156  0.81579793  0.40421396    -0.33200
C1520       C  0.98261140  0.77217426  0.39917821    -0.10700
C1521       C  0.94702164  0.74743187  0.40985422    -0.29500
N1522       N  0.91383626  0.81081036  0.45738143    -0.46100
C1523       C  0.93735512  0.85432509  0.46253036    -0.05400
C1524       C  0.97529444  0.88016669  0.45275630    -0.22800
H1525       H  0.03131308  0.88991761  0.42500691     0.19000
H1526       H  0.89388714  0.73795443  0.43741361     0.17800
H1527       H  0.92026589  0.71231643  0.40885583     0.14100
H1528       H  0.00002874  0.91594218  0.45386130     0.14000
H1529       H  0.03708233  0.84191171  0.39840373     0.32100
H1530       H  0.88421656  0.78423070  0.46236456     0.34900
C1531       C  0.86155880  0.58039352  0.35372591     0.20500
C1532       C  0.83985884  0.53862450  0.34549560    -0.39400
C1533       C  0.79570748  0.50722478  0.35083621     0.19500
C1534       C  0.77511358  0.51694851  0.36335419     0.22100
C1535       C  0.79644945  0.55841757  0.37141925    -0.39900
C1536       C  0.84015006  0.58943049  0.36613223     0.20900
N1537       N  0.90413951  0.61560527  0.35158818    -0.33200
C1538       C  0.90926228  0.64670404  0.36284377    -0.10700
C1539       C  0.86995653  0.63145861  0.37198347    -0.29500
N1540       N  0.73389625  0.48166337  0.36652362    -0.46100
C1541       C  0.72772780  0.44885136  0.35598320    -0.05400
C1542       C  0.76547031  0.46343914  0.34591744    -0.22800
H1543       H  0.85628816  0.53087823  0.33587435     0.19000
H1544       H  0.78043342  0.56574480  0.38130231     0.17800
H1545       H  0.86428807  0.64848110  0.38194604     0.14100
H1546       H  0.77033126  0.44441264  0.33647774     0.14000
H1547       H  0.92830153  0.61788197  0.34332782     0.32100
H1548       H  0.71143833  0.47996097  0.37542460     0.34900
C1549       C  0.12370795  0.17184480  0.01646515     0.20500
C1550       C  0.16954865  0.19924901  0.01186851    -0.39400
C1551       C  0.19137771  0.24433460  0.01756412     0.19500
C1552       C  0.16877881  0.26034182  0.02695118     0.22100
C1553       C  0.12319608  0.23342830  0.03127273    -0.39900
C1554       C  0.10179451  0.18870743  0.02579266     0.20900
N1555       N  0.09572241  0.12733054  0.01344535    -0.33200
C1556       C  0.05620368  0.11624054  0.02110581    -0.10700
C1557       C  0.05880905  0.15370429  0.02884955    -0.29500
N1558       N  0.19691250  0.30284880  0.03179229    -0.46100
C1559       C  0.23814171  0.31468202  0.02557652    -0.05400
C1560       C  0.23618845  0.27920837  0.01644028    -0.22800
H1561       H  0.18721491  0.18610461  0.00484885     0.19000
H1562       H  0.10606052  0.24600560  0.03886684     0.17800
H1563       H  0.03287502  0.15496542  0.03600200     0.14100
H1564       H  0.26400424  0.27828475  0.01048720     0.14000
H1565       H  0.10328653  0.10570851  0.00692436     0.32100
H1566       H  0.18866075  0.32225555  0.03931282     0.34900
C1567       C  0.27234031  0.45343747  0.08140889     0.20500
C1568       C  0.24067744  0.44755286  0.09320927    -0.39400
C1569       C  0.25694807  0.47962990  0.10551818     0.19500
C1570       C  0.30132734  0.51523043  0.10606994     0.22100
C1571       C  0.33318317  0.52122190  0.09414153    -0.39900
C1572       C  0.31688639  0.48876506  0.08175769     0.20900
N1573       N  0.26520626  0.42640277  0.06881189    -0.33200
C1574       C  0.30538914  0.44416033  0.06096937    -0.10700
C1575       C  0.33864019  0.48336338  0.06860574    -0.29500
N1576       N  0.30786844  0.54103025  0.11915768    -0.46100
C1577       C  0.26726540  0.52132491  0.12687461    -0.05400
C1578       C  0.23485392  0.48297047  0.11872168    -0.22800
H1579       H  0.20597029  0.41967431  0.09291288     0.19000
H1580       H  0.36801867  0.54876262  0.09454637     0.17800
H1581       H  0.37394673  0.50427975  0.06523731     0.14100
H1582       H  0.19965221  0.46064863  0.12197207     0.14000
H1583       H  0.23479576  0.39702571  0.06590682     0.32100
H1584       H  0.33788839  0.57006314  0.12260720     0.34900
C1585       C  0.45138323  0.33014937  0.93792443     0.20500
C1586       C  0.42009923  0.32305552  0.95027737    -0.39400
C1587       C  0.43400541  0.35898577  0.96134463     0.19500
C1588       C  0.47571488  0.39840143  0.96001426     0.22100
C1589       C  0.50652954  0.40544187  0.94778879    -0.39900
C1590       C  0.49276869  0.36999568  0.93687490     0.20900
N1591       N  0.44740150  0.30157846  0.92599175    -0.33200
C1592       C  0.48673732  0.32389216  0.91749932    -0.10700
C1593       C  0.51554002  0.36658536  0.92393659    -0.29500
N1594       N  0.48170815  0.42739940  0.97179684    -0.46100
C1595       C  0.44371620  0.40695497  0.98089712    -0.05400
C1596       C  0.41281655  0.36398929  0.97480364    -0.22800
H1597       H  0.38768789  0.29199718  0.95124471     0.19000
H1598       H  0.53911746  0.43635107  0.94689458     0.17800
H1599       H  0.54905078  0.39170456  0.91979435     0.14100
H1600       H  0.37975306  0.33985320  0.97957003     0.14000
H1601       H  0.42004151  0.26904785  0.92385053     0.32100
H1602       H  0.51028190  0.45944588  0.97351072     0.34900
C1603       C  0.56205748  0.60165547  0.02623956     0.20500
C1604       C  0.58419041  0.64189259  0.03541593    -0.39400
C1605       C  0.62830563  0.67429211  0.03023868     0.19500
C1606       C  0.64841636  0.66658948  0.01707816     0.22100
C1607       C  0.62684854  0.62653240  0.00818260    -0.39900
C1608       C  0.58317209  0.59476763  0.01322117     0.20900
N1609       N  0.51940422  0.56613419  0.02797754    -0.33200
C1610       C  0.51401332  0.53702517  0.01587512    -0.10700
C1611       C  0.55317139  0.55390300  0.00656228    -0.29500
N1612       N  0.68936736  0.70242699  0.01409372    -0.46100
C1613       C  0.69611977  0.73381425  0.02535749    -0.05400
C1614       C  0.65879485  0.71756220  0.03576545    -0.22800
H1615       H  0.56799539  0.64794694  0.04554538     0.19000
H1616       H  0.64260305  0.62093716  0.99780669     0.17800
H1617       H  0.55875235  0.53859099  0.99605257     0.14100
H1618       H  0.65429090  0.73520146  0.04577926     0.14000
H1619       H  0.49549984  0.56222277  0.03664014     0.32100
H1620       H  0.71128032  0.70544014  0.00477259     0.34900
C1621       C  0.05960999  0.48509437  0.60737809     0.20500
C1622       C  0.04283354  0.45003532  0.59617130    -0.39400
C1623       C  0.01502425  0.45205772  0.58432610     0.19500
C1624       C  0.00430022  0.48628115  0.58346980     0.22100
C1625       C  0.02133786  0.52184603  0.59479612    -0.39900
C1626       C  0.04957661  0.51986415  0.60681026     0.20900
N1627       N  0.08611496  0.48980337  0.61992791    -0.33200
C1628       C  0.09336388  0.52785357  0.62762639    -0.10700
C1629       C  0.07135741  0.54790940  0.61977250    -0.29500
N1630       N  0.97683601  0.47956241  0.57078937    -0.46100
C1631       C  0.97065689  0.44081444  0.56374997    -0.05400
C1632       C  0.99389470  0.42298986  0.57192015    -0.22800
H1633       H  0.05071263  0.42288955  0.59668492     0.19000
H1634       H  0.01318746  0.54879512  0.59433259     0.17800
H1635       H  0.07084057  0.57834589  0.62320586     0.14100
H1636       H  0.99522371  0.39256248  0.56913218     0.14000
H1637       H  0.09825990  0.46806491  0.62311616     0.32100
H1638       H  0.96329597  0.49978968  0.56718923     0.34900
C1639       C  0.91419474  0.18102076  0.52866158     0.20500
C1640       C  0.93898864  0.22435168  0.53530837    -0.39400
C1641       C  0.92505743  0.25501004  0.53077985     0.19500
C1642       C  0.88924481  0.24383023  0.52036228     0.22100
C1643       C  0.86466346  0.20030708  0.51348950    -0.39900
C1644       C  0.87858388  0.16930114  0.51808489     0.20900
N1645       N  0.91997922  0.14557887  0.53163150    -0.33200
C1646       C  0.88794677  0.11076004  0.52288917    -0.10700
C1647       C  0.86148060  0.12414276  0.51417946    -0.29500
N1648       N  0.88142494  0.27884005  0.51883137    -0.46100
C1649       C  0.91244654  0.31200413  0.52848001    -0.05400
C1650       C  0.94029375  0.29835537  0.53597039    -0.22800
H1651       H  0.96643292  0.23321666  0.54372846     0.19000
H1652       H  0.83623443  0.19096501  0.50550091     0.17800
H1653       H  0.83320075  0.10348969  0.50631960     0.14100
H1654       H  0.96707921  0.31709408  0.54460619     0.14000
H1655       H  0.94422123  0.14512002  0.53922154     0.32100
H1656       H  0.85582026  0.27956477  0.51213791     0.34900
C1657       C  0.87934096  0.67308745  0.52830571     0.20500
C1658       C  0.89115907  0.64229458  0.53511120    -0.39400
C1659       C  0.87594908  0.60112786  0.52669096     0.19500
C1660       C  0.85089576  0.59194456  0.51270403     0.22100
C1661       C  0.83895309  0.62224379  0.50603465    -0.39900
C1662       C  0.85415909  0.66296254  0.51432400     0.20900
N1663       N  0.88973843  0.71467658  0.53367812    -0.33200
C1664       C  0.87080659  0.73062153  0.52297504    -0.10700
C1665       C  0.84847686  0.69919365  0.51077431    -0.29500
N1666       N  0.84101117  0.55161899  0.50668698    -0.46100
C1667       C  0.85972780  0.53417333  0.51672733    -0.05400
C1668       C  0.88191212  0.56405129  0.52948939    -0.22800
H1669       H  0.91096191  0.64995777  0.54601606     0.19000
H1670       H  0.81949395  0.61475820  0.49504544     0.17800
H1671       H  0.83046795  0.70244737  0.50060283     0.14100
H1672       H  0.90014114  0.55952822  0.53930414     0.14000
H1673       H  0.90840907  0.73110010  0.54393576     0.32100
H1674       H  0.82274460  0.53700375  0.49616866     0.34900
C1675       C  0.75936945  0.39662766  0.46084589     0.20500
C1676       C  0.73569867  0.40450344  0.44877073    -0.39400
C1677       C  0.71478852  0.37023192  0.43736571     0.19500
C1678       C  0.71690219  0.33065089  0.43785916     0.22100
C1679       C  0.74105924  0.32273705  0.45005252    -0.39900
C1680       C  0.76238185  0.35754608  0.46160598     0.20900
N1681       N  0.78167154  0.42454026  0.47297565    -0.33200
C1682       C  0.79962170  0.40390897  0.48177919    -0.10700
C1683       C  0.78841214  0.36170672  0.47509296    -0.29500
N1684       N  0.69266287  0.30304802  0.42564898    -0.46100
C1685       C  0.67519862  0.32558831  0.41752516    -0.05400
C1686       C  0.68863388  0.36764732  0.42446641    -0.22800
H1687       H  0.73350104  0.43518214  0.44835753     0.19000
H1688       H  0.74282502  0.29184117  0.45056281     0.17800
H1689       H  0.79783062  0.33756220  0.47946833     0.14100
H1690       H  0.67979243  0.39276118  0.42072720     0.14000
H1691       H  0.78446580  0.45613930  0.47509416     0.32100
H1692       H  0.68784838  0.27083600  0.42312344     0.34900
C1693       C  0.56015366  0.50611116  0.86782372     0.20500
C1694       C  0.57222483  0.54327398  0.87783672    -0.39400
C1695       C  0.56218429  0.57569419  0.87197837     0.19500
C1696       C  0.54201470  0.57211809  0.85720214     0.22100
C1697       C  0.52977667  0.53453052  0.84711080    -0.39900
C1698       C  0.53954489  0.50156133  0.85306080     0.20900
N1699       N  0.56597967  0.47073000  0.87084710    -0.33200
C1700       C  0.54880137  0.44298667  0.85798384    -0.10700
C1701       C  0.53191164  0.46092566  0.84658436    -0.29500
N1702       N  0.53746808  0.60881159  0.85442293    -0.46100
C1703       C  0.55501770  0.63543407  0.86762048    -0.05400
C1704       C  0.57036063  0.61555936  0.87875821    -0.22800
H1705       H  0.58832819  0.54672665  0.88937274     0.19000
H1706       H  0.51396931  0.53121300  0.83553358     0.17800
H1707       H  0.51619453  0.44623487  0.83517886     0.14100
H1708       H  0.58638689  0.62903211  0.89024307     0.14000
H1709       H  0.58051380  0.46566703  0.88113086     0.32100
H1710       H  0.52403910  0.61555741  0.84419824     0.34900
C1711       C  0.65178972  0.77352467  0.92377632     0.20500
C1712       C  0.67143201  0.76510466  0.93712750    -0.39400
C1713       C  0.69797684  0.80265139  0.94685939     0.19500
C1714       C  0.70434851  0.84543800  0.94368309     0.22100
C1715       C  0.68415939  0.85376362  0.93031684    -0.39900
C1716       C  0.65763782  0.81602611  0.92043307     0.20900
N1717       N  0.62675599  0.74365475  0.91242780    -0.33200
C1718       C  0.61626632  0.76686826  0.90164683    -0.10700
C1719       C  0.63478589  0.81226745  0.90621948    -0.29500
N1720       N  0.73257483  0.87563267  0.95459454    -0.46100
C1721       C  0.74429174  0.85164527  0.96461640    -0.05400
C1722       C  0.72317678  0.80606100  0.96017859    -0.22800
H1723       H  0.66717064  0.73189062  0.93955774     0.19000
H1724       H  0.68946401  0.88723244  0.92763446     0.17800
H1725       H  0.63283381  0.83897888  0.89983667     0.14100
H1726       H  0.72649425  0.77912635  0.96579741     0.14000
H1727       H  0.61792530  0.70947736  0.91195670     0.32100
H1728       H  0.74384363  0.91039155  0.95500430     0.34900
C1729       C  0.44040764  0.73920531  0.79063831     0.20500
C1730       C  0.41989130  0.74816962  0.77771216    -0.39400
C1731       C  0.39124202  0.71073409  0.76830879     0.19500
C1732       C  0.38372993  0.66747763  0.77137208     0.22100
C1733       C  0.40449427  0.65845590  0.78440548    -0.39900
C1734       C  0.43321210  0.69619255  0.79398159     0.20900
N1735       N  0.46717668  0.76902778  0.80168577    -0.33200
C1736       C  0.47729512  0.74534496  0.81236385    -0.10700
C1737       C  0.45703427  0.69961498  0.80793827    -0.29500
N1738       N  0.35457183  0.63783313  0.76053780    -0.46100
C1739       C  0.34349958  0.66271655  0.75070992    -0.05400
C1740       C  0.36570676  0.70822254  0.75521662    -0.22800
H1741       H  0.42523131  0.78181806  0.77532940     0.19000
H1742       H  0.39824139  0.62460811  0.78702089     0.17800
H1743       H  0.45796047  0.67242524  0.81437730     0.14100
H1744       H  0.36351205  0.73583396  0.74962535     0.14000
H1745       H  0.47687143  0.80343507  0.80215129     0.32100
H1746       H  0.34270118  0.60297190  0.75993999     0.34900
C1747       C  0.54776293  0.93865108  0.85746661     0.20500
C1748       C  0.56401860  0.97854384  0.86670616    -0.39400
C1749       C  0.55232084  0.01051454  0.86108029     0.19500
C1750       C  0.52634756  0.00294919  0.84739847     0.22100
C1751       C  0.51017292  0.96345653  0.83827454    -0.39900
C1752       C  0.52196583  0.93197830  0.84381331     0.20900
N1753       N  0.55426519  0.90294910  0.85989524    -0.33200
C1754       C  0.53246980  0.87392955  0.84756137    -0.10700
C1755       C  0.51205173  0.89110490  0.83741426    -0.29500
N1756       N  0.51993655  0.03800869  0.84438618    -0.46100
C1757       C  0.54195348  0.06859379  0.85618165    -0.05400
C1758       C  0.56268921  0.05278038  0.86687744    -0.22800
H1759       H  0.58442834  0.98441082  0.87736288     0.19000
H1760       H  0.49008287  0.95777520  0.82753428     0.17800
H1761       H  0.49250948  0.87569548  0.82664691     0.14100
H1762       H  0.58272561  0.06992616  0.87737079     0.14000
H1763       H  0.57248410  0.89878851  0.86919120     0.32100
H1764       H  0.50177739  0.04096916  0.83479049     0.34900
C1765       C  0.89647322  0.27519007  0.69104557     0.20500
C1766       C  0.91734678  0.31721454  0.69914530    -0.39400
C1767       C  0.96217359  0.34830473  0.69431762     0.19500
C1768       C  0.98393851  0.33797177  0.68238515     0.22100
C1769       C  0.96343937  0.29636246  0.67448125    -0.39900
C1770       C  0.91923631  0.26572048  0.67926111     0.20900
N1771       N  0.85389159  0.23976763  0.69290732    -0.33200
C1772       C  0.85036923  0.20816413  0.68213776    -0.10700
C1773       C  0.89048302  0.22332929  0.67354279    -0.29500
N1774       N  0.02567825  0.37268789  0.67965781    -0.46100
C1775       C  0.03121875  0.40580668  0.68991293    -0.05400
C1776       C  0.99239460  0.39203841  0.69935075    -0.22800
H1777       H  0.89999671  0.32522649  0.70835135     0.19000
H1778       H  0.98059581  0.28854749  0.66513516     0.17800
H1779       H  0.89757386  0.20579214  0.66412868     0.14100
H1780       H  0.98696656  0.41142627  0.70849999     0.14000
H1781       H  0.82892496  0.23743181  0.70079138     0.32100
H1782       H  0.04903761  0.37369177  0.67127907     0.34900
C1783       C  0.83077591  0.03057434  0.60591586     0.20500
C1784       C  0.84971394  0.06377611  0.61781543    -0.39400
C1785       C  0.81958026  0.06176981  0.62958296     0.19500
C1786       C  0.77386545  0.02932992  0.62963756     0.22100
C1787       C  0.75489973  0.99554595  0.61772240    -0.39900
C1788       C  0.78526938  0.99747552  0.60584294     0.20900
N1789       N  0.85257266  0.02583101  0.59337082    -0.33200
C1790       C  0.82104201  0.98922443  0.58518175    -0.10700
C1791       C  0.77848765  0.97045490  0.59255663    -0.29500
N1792       N  0.75236391  0.03661097  0.64190531    -0.46100
C1793       C  0.78499572  0.07406252  0.64950871    -0.05400
C1794       C  0.82719493  0.09026814  0.64220225    -0.22800
H1795       H  0.88527566  0.08970257  0.61779389     0.19000
H1796       H  0.71919811  0.97012308  0.61758490     0.17800
H1797       H  0.74704558  0.94116531  0.58873103     0.14100
H1798       H  0.85913043  0.11994747  0.64542067     0.14000
H1799       H  0.88703661  0.04615542  0.59063739     0.32100
H1800       H  0.71778421  0.01813564  0.64466434     0.34900
C1801       C  0.52956817  0.91553751  0.68750916     0.20500
C1802       C  0.50537106  0.87585139  0.67823742    -0.39400
C1803       C  0.46272326  0.84309894  0.68438756     0.19500
C1804       C  0.44580684  0.84955681  0.69865299     0.22100
C1805       C  0.46972010  0.88890999  0.70783744    -0.39900
C1806       C  0.51190153  0.92134870  0.70169867     0.20900
N1807       N  0.57074741  0.95214110  0.68445779    -0.33200
C1808       C  0.57865919  0.98112187  0.69684704    -0.10700
C1809       C  0.54267622  0.96282115  0.70774401    -0.29500
N1810       N  0.40512403  0.81366821  0.70209109    -0.46100
C1811       C  0.39563610  0.78371731  0.68997211    -0.05400
C1812       C  0.43072126  0.80084796  0.67863903    -0.22800
H1813       H  0.51868479  0.87081227  0.66711203     0.19000
H1814       H  0.45644713  0.89392049  0.71898842     0.17800
H1815       H  0.53936696  0.97799981  0.71871594     0.14100
H1816       H  0.43266214  0.78450797  0.66776272     0.14000
H1817       H  0.59179665  0.95715856  0.67461886     0.32100
H1818       H  0.38516023  0.80971733  0.71216874     0.34900
C1819       C  0.65721837  0.15933757  0.74946461     0.20500
C1820       C  0.67251296  0.19680716  0.75994873    -0.39400
C1821       C  0.64368072  0.19070069  0.77310077     0.19500
C1822       C  0.60310869  0.15054000  0.77542716     0.22100
C1823       C  0.58821212  0.11361656  0.76513423    -0.39900
C1824       C  0.61663043  0.11963976  0.75222120     0.20900
N1825       N  0.67708248  0.15557182  0.73590683    -0.33200
C1826       C  0.64822582  0.11310137  0.73027041    -0.10700
C1827       C  0.61059065  0.09012323  0.74021541    -0.29500
N1828       N  0.58121573  0.15264932  0.78843193    -0.46100
C1829       C  0.60767053  0.19443003  0.79469397    -0.05400
C1830       C  0.64718167  0.21939868  0.78551381    -0.22800
H1831       H  0.70407840  0.22821186  0.75799014     0.19000
H1832       H  0.55642136  0.08235192  0.76699318     0.17800
H1833       H  0.58204882  0.05605002  0.73879451     0.14100
H1834       H  0.67440355  0.25381714  0.78756933     0.14000
H1835       H  0.70769910  0.18011226  0.73080370     0.32100
H1836       H  0.54994414  0.12703823  0.79276198     0.34900
loop_ 
_geom_bond_atom_site_label_1 
_geom_bond_atom_site_label_2 
_geom_bond_distance 
_geom_bond_site_symmetry_2 
_ccdc_geom_bond_type 
C1            N2   1.358       .  A
C1            N6   1.346       .  A
C1         C1826   1.473       .  S
N2            C3   1.369       .  A
C3            N4   1.371       .  A
C3           C11   1.473       .  S
N4            C5   1.361       .  A
C5            N6   1.345       .  A
C5         C1808   1.476   1_545  S
C7            N8   1.346       .  A
C7           N12   1.359       .  A
C7         C1793   1.470       .  S
N8            C9   1.347       .  A
C9           N10   1.358       .  A
C9         C1772   1.470       .  S
N10          C11   1.368       .  A
C11          N12   1.368       .  A
C13          N14   1.358       .  A
C13          N18   1.347       .  A
C13        C1736   1.471       .  S
N14          C15   1.367       .  A
C15          N16   1.371       .  A
C15          C21   1.476       .  S
N16          C17   1.361       .  A
C17          N18   1.349       .  A
C17        C1754   1.477       .  S
C19          N20   1.359       .  A
C19          N24   1.346       .  A
C19        C1718   1.471       .  S
N20          C21   1.367       .  A
C21          N22   1.370       .  A
N22          C23   1.361       .  A
C23          N24   1.348       .  A
C23        C1703   1.473       .  S
C25          N26   1.358       .  A
C25          N30   1.350       .  A
C25        C1682   1.476       .  S
N26          C27   1.368       .  A
C27          N28   1.368       .  A
C27          C33   1.470       .  S
N28          C29   1.359       .  A
C29          N30   1.350       .  A
C29        C1667   1.477       .  S
C31          N32   1.358       .  A
C31          N36   1.349       .  A
C31        C1631   1.469       .  S
N32          C33   1.367       .  A
C33          N34   1.367       .  A
N34          C35   1.358       .  A
C35          N36   1.347       .  A
C35        C1649   1.469       .  S
C37          N38   1.349       .  A
C37          N42   1.355   1_556  A
C37        C1595   1.469       .  S
N38          C39   1.350   1_556  A
C39          N40   1.360       .  A
C39        C1610   1.476       .  S
N40          C41   1.369       .  A
C41          N42   1.364       .  A
C41          C47   1.470       .  S
C43          N44   1.350       .  A
C43          N48   1.358       .  A
C43        C1574   1.468       .  S
N44          C45   1.350       .  A
C45          N46   1.358       .  A
C45        C1559   1.472       .  S
N46          C47   1.366       .  A
C47          N48   1.364       .  A
C49          N50   1.362   1_655  A
C49          N54   1.347       .  A
C49        C1520   1.478       .  S
N50          C51   1.372       .  A
C51          N52   1.369   1_455  A
C51          C57   1.480       .  S
N52          C53   1.359       .  A
C53          N54   1.346       .  A
C53        C1538   1.473       .  S
C55          N56   1.362       .  A
C55          N60   1.349       .  A
C55        C1505   1.479       .  S
N56          C57   1.371       .  A
C57          N58   1.368       .  A
N58          C59   1.360       .  A
C59          N60   1.348       .  A
C59        C1487   1.474       .  S
C61          N62   1.359       .  A
C61          N66   1.347       .  A
C61        C1448   1.474       .  S
N62          C63   1.369       .  A
C63          N64   1.369       .  A
C63          C69   1.475       .  S
N64          C65   1.360       .  A
C65          N66   1.348       .  A
C65        C1466   1.472       .  S
C67          N68   1.360       .  A
C67          N72   1.349       .  A
C67        C1415   1.474       .  S
N68          C69   1.369       .  A
C69          N70   1.368       .  A
N70          C71   1.359       .  A
C71          N72   1.347       .  A
C71        C1430   1.475   1_545  S
C73          N74   1.359       .  A
C73          N78   1.349       .  A
C73        C1394   1.474       .  S
N74          C75   1.368       .  A
C75          N76   1.367   1_455  A
C75          C81   1.474       .  S
N76          C77   1.359       .  A
C77          N78   1.350   1_655  A
C77        C1376   1.472       .  S
C79          N80   1.361       .  A
C79          N84   1.350       .  A
C79        C1358   1.477       .  S
N80          C81   1.369       .  A
C81          N82   1.367       .  A
N82          C83   1.358       .  A
C83          N84   1.349       .  A
C83        C1340   1.473       .  S
C85          N86   1.353       .  A
C85          N90   1.347       .  A
C85        C1325   1.463       .  S
N86          C87   1.363       .  A
C87          N88   1.368       .  A
C87          C93   1.465       .  S
N88          C89   1.360       .  A
C89          N90   1.349       .  A
C89        C1307   1.472       .  S
C91          N92   1.358       .  A
C91          N96   1.348       .  A
C91        C1268   1.468       .  S
N92          C93   1.365       .  A
C93          N94   1.367       .  A
N94          C95   1.356       .  A
C95          N96   1.348       .  A
C95        C1286   1.471       .  S
C97          N98   1.360       .  A
C97         N102   1.351       .  A
C97        C1253   1.477       .  S
N98          C99   1.368       .  A
C99         N100   1.367       .  A
C99         C107   1.474       .  S
N100        C101   1.358       .  A
C101        N102   1.352       .  A
C101       C1235   1.475       .  S
C103        N104   1.351       .  A
C103        N108   1.360       .  A
C103       C1196   1.477       .  S
N104        C105   1.350       .  A
C105        N106   1.359       .  A
C105       C1214   1.475       .  S
N106        C107   1.367       .  A
C107        N108   1.368       .  A
C109        N110   1.347   1_556  A
C109        N114   1.356   1_556  A
C109       C1160   1.468   1_565  S
N110        C111   1.348       .  A
C111        N112   1.360       .  A
C111       C1178   1.472       .  S
N112        C113   1.369       .  A
C113        N114   1.366       .  A
C113        C117   1.470       .  S
C115        N116   1.359       .  A
C115        N120   1.347       .  A
C115       C1145   1.468       .  S
N116        C117   1.368       .  A
C117        N118   1.368       .  A
N118        C119   1.357       .  A
C119        N120   1.345       .  A
C119       C1124   1.471       .  S
C121        N122   1.362       .  A
C121        N126   1.349       .  A
C121       C1088   1.478       .  S
N122        C123   1.371       .  A
C123        N124   1.368       .  A
C123        C131   1.478       .  S
N124        C125   1.359       .  A
C125        N126   1.348       .  A
C125       C1109   1.474       .  S
C127        N128   1.347       .  A
C127        N132   1.360       .  A
C127       C1070   1.477       .  S
N128        C129   1.347   1_455  A
C129        N130   1.361       .  A
C129       C1052   1.475       .  S
N130        C131   1.370   1_655  A
C131        N132   1.371       .  A
C133        N134   1.358       .  A
C133        N138   1.346       .  A
C133       C1016   1.466       .  S
N134        C135   1.366       .  A
C135        N136   1.369       .  A
C135        C141   1.473       .  S
N136        C137   1.360       .  A
C137        N138   1.347       .  A
C137       C1034   1.471       .  S
C139        N140   1.358       .  A
C139        N144   1.349   1_545  A
C139        C983   1.469       .  S
N140        C141   1.365       .  A
C141        N142   1.368       .  A
N142        C143   1.360   1_545  A
C143        N144   1.349       .  A
C143        C998   1.474       .  S
C145        N146   1.359       .  A
C145        N150   1.346       .  A
C145        C962   1.471       .  S
N146        C147   1.367       .  A
C147        N148   1.367       .  A
C147        C153   1.470       .  S
N148        C149   1.358       .  A
C149        N150   1.348       .  A
C149        C944   1.470       .  S
C151        N152   1.357       .  A
C151        N156   1.349       .  A
C151        C926   1.470       .  S
N152        C153   1.366       .  A
C153        N154   1.367       .  A
N154        C155   1.359       .  A
C155        N156   1.349       .  A
C155        C908   1.471       .  S
C157        N158   1.359       .  A
C157        N162   1.348       .  A
C157        C890   1.471       .  S
N158        C159   1.368       .  A
C159        N160   1.368       .  A
C159        C167   1.473       .  S
N160        C161   1.358       .  A
C161        N162   1.347       .  A
C161        C872   1.471       .  S
C163        N164   1.348   1_545  A
C163        N168   1.358       .  A
C163        C854   1.475       .  S
N164        C165   1.350   1_565  A
C165        N166   1.360       .  A
C165        C836   1.476   1_545  S
N166        C167   1.369       .  A
C167        N168   1.368       .  A
C169        N170   1.350       .  A
C169        N174   1.356       .  A
C169        C800   1.473   1_565  S
N170        C171   1.351       .  A
C171        N172   1.360       .  A
C171        C821   1.478       .  S
N172        C173   1.368       .  A
C173        N174   1.366       .  A
C173        C177   1.470       .  S
C175        N176   1.359       .  A
C175        N180   1.347       .  A
C175        C764   1.468       .  S
N176        C177   1.367       .  A
C177        N178   1.367       .  A
N178        C179   1.356       .  A
C179        N180   1.345       .  A
C179        C785   1.466       .  S
C181        N182   1.346       .  A
C181        N186   1.359       .  A
C181        C728   1.471       .  S
N182        C183   1.346       .  A
C183        N184   1.360       .  A
C183        C746   1.471       .  S
N184        C185   1.369       .  A
C185        N186   1.368       .  A
C185        C191   1.475       .  S
C187        N188   1.349       .  A
C187        N192   1.359       .  A
C187        C713   1.472       .  S
N188        C189   1.348       .  A
C189        N190   1.360       .  A
C189        C692   1.474       .  S
N190        C191   1.368       .  A
C191        N192   1.367       .  A
C193        N194   1.359   1_556  A
C193        N198   1.351       .  A
C193        C674   1.474       .  S
N194        C195   1.367       .  A
C195        N196   1.366       .  A
C195        C203   1.474       .  S
N196        C197   1.359       .  A
C197        N198   1.350   1_554  A
C197        C656   1.474       .  S
C199        N200   1.350       .  A
C199        N204   1.360       .  A
C199        C620   1.477       .  S
N200        C201   1.349       .  A
C201        N202   1.358       .  A
C201        C638   1.474       .  S
N202        C203   1.367       .  A
C203        N204   1.370       .  A
C205        N206   1.359       .  A
C205        N210   1.346       .  A
C205        C584   1.473       .  S
N206        C207   1.369       .  A
C207        N208   1.370       .  A
C207        C215   1.476       .  S
N208        C209   1.361       .  A
C209        N210   1.347       .  A
C209        C602   1.474       .  S
C211        N212   1.348       .  A
C211        N216   1.360   1_655  A
C211        C551   1.479       .  S
N212        C213   1.348       .  A
C213        N214   1.359       .  A
C213        C566   1.474       .  S
N214        C215   1.370   1_655  A
C215        N216   1.370       .  A
O217        C228   1.294       .  A
O217       Eu253   2.471       .  S
O218        C229   1.290       .  A
O218       Eu252   2.458       .  S
O219        C230   1.290       .  A
O219       Eu225   2.448       .  S
O220        C231   1.289       .  A
O220       Eu225   2.453       .  S
O221        C231   1.290       .  A
O221       Eu255   2.443       .  S
O222        C230   1.291       .  A
O222       Eu254   2.464       .  S
O223        C229   1.289       .  A
O223       Eu225   2.447       .  S
O224        C228   1.287       .  A
O224       Eu225   2.441       .  S
Eu225       O235   2.354       .  S
Eu225       O227   2.349       .  S
Eu225       O226   2.343       .  S
Eu225       O233   2.352       .  S
O226       Eu255   2.344       .  S
O226       Eu252   2.342       .  S
O227       Eu253   2.352       .  S
O227       Eu254   2.350       .  S
C228       C1829   1.470       .  S
C229       C1379   1.469       .  S
C230       C1271   1.471       .  S
C231        C569   1.466       .  S
H232        O233   0.966       .  S
O233       Eu254   2.355       .  S
O233       Eu252   2.352       .  S
H234        O235   0.965       .  S
O235       Eu253   2.353       .  S
O235       Eu255   2.354       .  S
O236        C259   1.290       .  A
O236       Eu252   2.445       .  S
O237        C260   1.292       .  A
O237       Eu253   2.473       .  S
O238        C261   1.290       .  A
O238       Eu254   2.456       .  S
O239        C262   1.292       .  A
O239       Eu255   2.456       .  S
O240        C263   1.291       .  A
O240       Eu255   2.459       .  S
O241        C264   1.290       .  A
O241       Eu254   2.450       .  S
O242        C265   1.290       .  A
O242       Eu256   2.455       .  S
O243        C266   1.290       .  A
O243       Eu256   2.450       .  S
O244        C265   1.292       .  A
O244       Eu254   2.459       .  S
O245        C266   1.289       .  A
O245       Eu255   2.453       .  S
O246        C261   1.288       .  A
O246       Eu252   2.441       .  S
O247        C264   1.289       .  A
O247       Eu253   2.450       .  S
O248        C263   1.290       .  A
O248       Eu253   2.450       .  S
O249        C262   1.289       .  A
O249       Eu252   2.453       .  S
O250        C259   1.290       .  A
O250       Eu256   2.462       .  S
O251        C260   1.290       .  A
O251       Eu256   2.448       .  S
Eu252       O270   2.354       .  S
Eu252       O258   2.341       .  S
Eu253       O257   2.352       .  S
Eu253       O268   2.359       .  S
Eu254       O268   2.357       .  S
Eu254       O258   2.344       .  S
Eu255       O257   2.350       .  S
Eu255       O270   2.352       .  S
Eu256       O257   2.347       .  S
Eu256       O268   2.355       .  S
Eu256       O270   2.351       .  S
Eu256       O258   2.345       .  S
C259       C1592   1.470       .  S
C260       C1343   1.475       .  S
C261       C1700   1.465       .  S
C262        C677   1.472       .  S
C263       C1757   1.470       .  S
C264        C893   1.466       .  S
C265        C605   1.471       .  S
C266       C1163   1.468       .  S
H267        O268   0.966       .  S
H269        O270   0.966       .  S
O271        C282   1.290       .  A
O271       Eu307   2.447   1_556  S
O272        C283   1.293       .  A
O272       Eu306   2.475       .  S
O273        C284   1.290       .  A
O273       Eu279   2.455       .  S
O274        C285   1.296       .  A
O274       Eu279   2.485   1_546  S
O275        C285   1.289       .  A
O275       Eu309   2.448   1_546  S
O276        C284   1.292       .  A
O276       Eu308   2.457       .  S
O277        C283   1.291       .  A
O277       Eu279   2.458   1_545  S
O278        C282   1.292       .  A
O278       Eu279   2.467   1_556  S
Eu279       O289   2.350   1_554  S
Eu279       O281   2.359       .  S
Eu279       O280   2.349       .  S
Eu279       O287   2.361       .  S
O280       Eu309   2.359       .  S
O280       Eu306   2.350   1_565  S
O281       Eu307   2.347       .  S
O281       Eu308   2.351       .  S
C282       C1721   1.472       .  S
C283        C659   1.478       .  S
C284       C1127   1.469       .  S
C285        C548   1.479       .  S
H286        O287   0.966       .  S
O287       Eu308   2.356       .  S
O287       Eu306   2.350   1_565  S
H288        O289   0.966       .  S
O289       Eu307   2.355   1_556  S
O289       Eu309   2.357   1_556  S
O290        C313   1.292   1_545  A
O290       Eu306   2.459       .  S
O291        C314   1.290       .  A
O291       Eu307   2.455       .  S
O292        C315   1.290       .  A
O292       Eu308   2.454       .  S
O293        C316   1.290       .  A
O293       Eu309   2.462   1_445  S
O294        C317   1.292       .  A
O294       Eu309   2.462   1_556  S
O295        C318   1.290       .  A
O295       Eu308   2.460       .  S
O296        C319   1.290       .  A
O296       Eu310   2.452       .  S
O297        C320   1.289   1_655  A
O297       Eu310   2.449       .  S
O298        C319   1.290       .  A
O298       Eu308   2.460       .  S
O299        C320   1.292       .  A
O299       Eu309   2.463   1_455  S
O300        C315   1.290       .  A
O300       Eu306   2.457   1_565  S
O301        C318   1.291       .  A
O301       Eu307   2.458       .  S
O302        C317   1.292       .  A
O302       Eu307   2.470   1_556  S
O303        C316   1.291   1_655  A
O303       Eu306   2.454       .  S
O304        C313   1.291       .  A
O304       Eu310   2.464       .  S
O305        C314   1.293       .  A
O305       Eu310   2.466       .  S
Eu306       O324   2.361   1_545  S
Eu306       O312   2.351   1_545  S
Eu307       O311   2.354       .  S
Eu307       O322   2.353       .  S
Eu308       O322   2.355       .  S
Eu308       O312   2.347       .  S
Eu309       O311   2.349       .  S
Eu309       O324   2.355       .  S
Eu310       O311   2.351       .  S
Eu310       O322   2.352       .  S
Eu310       O324   2.362       .  S
Eu310       O312   2.350       .  S
C313       C1451   1.474   1_655  S
C314        C641   1.473       .  S
C315        C980   1.467       .  S
C316       C1556   1.471       .  S
C317       C1361   1.478       .  S
C318       C1613   1.474       .  S
C319        C710   1.470       .  S
C320       C1181   1.470       .  S
H321        O322   0.966       .  S
H323        O324   0.966       .  S
O325        C336   1.292       .  A
O325       Eu361   2.456       .  S
O326        C337   1.290       .  A
O326       Eu360   2.459       .  S
O327        C338   1.292       .  A
O327       Eu333   2.458       .  S
O328        C339   1.288       .  A
O328       Eu333   2.446       .  S
O329        C339   1.292       .  A
O329       Eu363   2.460       .  S
O330        C338   1.289       .  A
O330       Eu362   2.451       .  S
O331        C337   1.291       .  A
O331       Eu333   2.457       .  S
O332        C336   1.291       .  A
O332       Eu333   2.466       .  S
Eu333       O343   2.354       .  S
Eu333       O335   2.351       .  S
Eu333       O334   2.355       .  S
Eu333       O341   2.348       .  S
O334       Eu363   2.350       .  S
O334       Eu360   2.348       .  S
O335       Eu361   2.351       .  S
O335       Eu362   2.355       .  S
C336       C1685   1.475       .  S
C337        C911   1.471       .  S
C338        C803   1.471       .  S
C339       C1055   1.469       .  S
H340        O341   0.965       .  S
O341       Eu362   2.356       .  S
O341       Eu360   2.352       .  S
H342        O343   0.965       .  S
O343       Eu361   2.352       .  S
O343       Eu363   2.350       .  S
O344        C367   1.289       .  A
O344       Eu360   2.444       .  S
O345        C368   1.289       .  A
O345       Eu361   2.456       .  S
O346        C369   1.291       .  A
O346       Eu362   2.462       .  S
O347        C370   1.289       .  A
O347       Eu363   2.446       .  S
O348        C371   1.288       .  A
O348       Eu363   2.442       .  S
O349        C372   1.292       .  A
O349       Eu362   2.458       .  S
O350        C373   1.290       .  A
O350       Eu364   2.456       .  S
O351        C374   1.290       .  A
O351       Eu364   2.450       .  S
O352        C373   1.292       .  A
O352       Eu362   2.462       .  S
O353        C374   1.290       .  A
O353       Eu363   2.455       .  S
O354        C369   1.290       .  A
O354       Eu360   2.449       .  S
O355        C372   1.290       .  A
O355       Eu361   2.462       .  S
O356        C371   1.292       .  A
O356       Eu361   2.462       .  S
O357        C370   1.290       .  A
O357       Eu360   2.461       .  S
O358        C367   1.291       .  A
O358       Eu364   2.461       .  S
O359        C368   1.290       .  A
O359       Eu364   2.449       .  S
Eu360       O378   2.351       .  S
Eu360       O366   2.353       .  S
Eu361       O365   2.347       .  S
Eu361       O376   2.362       .  S
Eu362       O376   2.352       .  S
Eu362       O366   2.348       .  S
Eu363       O365   2.350       .  S
Eu363       O378   2.345       .  S
Eu364       O365   2.346       .  S
Eu364       O376   2.352       .  S
Eu364       O378   2.350       .  S
Eu364       O366   2.349       .  S
C367       C1412   1.468       .  S
C368        C947   1.468       .  S
C369       C1484   1.471       .  S
C370       C1019   1.466       .  S
C371       C1541   1.468       .  S
C372       C1250   1.474       .  S
C373       C1106   1.473       .  S
C374        C731   1.468       .  S
H375        O376   0.965       .  S
H377        O378   0.965       .  S
O379        C390   1.291       .  A
O379       Eu415   2.463       .  S
O380        C391   1.290       .  A
O380       Eu414   2.446       .  S
O381        C392   1.288       .  A
O381       Eu387   2.445       .  S
O382        C393   1.289       .  A
O382       Eu387   2.444       .  S
O383        C393   1.290       .  A
O383       Eu417   2.459       .  S
O384        C392   1.294       .  A
O384       Eu416   2.470       .  S
O385        C391   1.291       .  A
O385       Eu387   2.469       .  S
O386        C390   1.291       .  A
O386       Eu387   2.456       .  S
Eu387       O397   2.351       .  S
Eu387       O389   2.357       .  S
Eu387       O388   2.349       .  S
Eu387       O395   2.354       .  S
O388       Eu417   2.345       .  S
O388       Eu414   2.350       .  S
O389       Eu415   2.358       .  S
O389       Eu416   2.352       .  S
C390       C1811   1.473       .  S
C391       C1397   1.474       .  S
C392        C839   1.472       .  S
C393       C1739   1.469       .  S
H394        O395   0.964       .  S
O395       Eu416   2.355       .  S
O395       Eu414   2.349       .  S
H396        O397   0.964       .  S
O397       Eu415   2.355       .  S
O397       Eu417   2.352       .  S
O398        C421   1.287       .  A
O398       Eu414   2.441       .  S
O399        C422   1.294       .  A
O399       Eu415   2.468       .  S
O400        C423   1.291       .  A
O400       Eu416   2.464       .  S
O401        C424   1.291       .  A
O401       Eu417   2.456       .  S
O402        C425   1.289       .  A
O402       Eu417   2.454       .  S
O403        C426   1.291       .  A
O403       Eu416   2.457       .  S
O404        C427   1.291       .  A
O404       Eu418   2.456       .  S
O405        C428   1.292       .  A
O405       Eu418   2.472       .  S
O406        C427   1.291       .  A
O406       Eu416   2.466       .  S
O407        C428   1.288       .  A
O407       Eu417   2.435       .  S
O408        C423   1.291       .  A
O408       Eu414   2.454       .  S
O409        C426   1.291       .  A
O409       Eu415   2.461       .  S
O410        C425   1.293       .  A
O410       Eu415   2.465       .  S
O411        C424   1.290       .  A
O411       Eu414   2.460       .  S
O412        C421   1.292       .  A
O412       Eu418   2.459       .  S
O413        C422   1.289       .  A
O413       Eu418   2.455       .  S
Eu414       O432   2.355       .  S
Eu414       O420   2.353       .  S
Eu415       O419   2.344       .  S
Eu415       O430   2.351       .  S
Eu416       O430   2.357       .  S
Eu416       O420   2.355       .  S
Eu417       O419   2.348       .  S
Eu417       O432   2.356       .  S
Eu418       O419   2.346       .  S
Eu418       O430   2.355       .  S
Eu418       O432   2.352       .  S
Eu418       O420   2.352       .  S
C421       C1775   1.465       .  S
C422       C1199   1.475       .  S
C423       C1289   1.472       .  S
C424        C587   1.472       .  S
C425       C1304   1.473       .  S
C426        C767   1.470       .  S
C427       C1628   1.472       .  S
C428        C875   1.470       .  S
H429        O430   0.964       .  S
H431        O432   0.964       .  S
O433        C444   1.288       .  A
O433       Eu469   2.436       .  S
O434        C445   1.290       .  A
O434       Eu468   2.457       .  S
O435        C446   1.290       .  A
O435       Eu441   2.443       .  S
O436        C447   1.289       .  A
O436       Eu441   2.449       .  S
O437        C447   1.291       .  A
O437       Eu471   2.461       .  S
O438        C446   1.289       .  A
O438       Eu470   2.450       .  S
O439        C445   1.293       .  A
O439       Eu441   2.467       .  S
O440        C444   1.292       .  A
O440       Eu441   2.473       .  S
Eu441       O451   2.349       .  S
Eu441       O443   2.353       .  S
Eu441       O442   2.350       .  S
Eu441       O449   2.351       .  S
O442       Eu471   2.342       .  S
O442       Eu468   2.357       .  S
O443       Eu469   2.350       .  S
O443       Eu470   2.350       .  S
C444       C1577   1.469       .  S
C445       C1001   1.474       .  S
C446       C1142   1.463       .  S
C447        C749   1.468       .  S
H448        O449   0.964       .  S
O449       Eu470   2.355       .  S
O449       Eu468   2.356       .  S
H450        O451   0.964       .  S
O451       Eu469   2.357       .  S
O451       Eu471   2.353       .  S
O452        C475   1.294       .  A
O452       Eu468   2.472       .  S
O453        C476   1.289       .  A
O453       Eu469   2.454       .  S
O454        C477   1.291       .  A
O454       Eu470   2.464       .  S
O455        C478   1.289       .  A
O455       Eu471   2.446       .  S
O456        C479   1.288       .  A
O456       Eu471   2.446       .  S
O457        C480   1.291       .  A
O457       Eu470   2.458       .  S
O458        C481   1.289       .  A
O458       Eu472   2.454       .  S
O459        C482   1.291       .  A
O459       Eu472   2.454       .  S
O460        C481   1.291       .  A
O460       Eu470   2.452       .  S
O461        C482   1.290       .  A
O461       Eu471   2.457       .  S
O462        C477   1.292       .  A
O462       Eu468   2.462       .  S
O463        C480   1.292       .  A
O463       Eu469   2.471       .  S
O464        C479   1.291       .  A
O464       Eu469   2.458       .  S
O465        C478   1.292       .  A
O465       Eu468   2.469       .  S
O466        C475   1.291       .  A
O466       Eu472   2.462       .  S
O467        C476   1.292       .  A
O467       Eu472   2.463       .  S
Eu468       O486   2.356       .  S
Eu468       O474   2.350       .  S
Eu469       O473   2.350       .  S
Eu469       O484   2.348       .  S
Eu470       O484   2.351       .  S
Eu470       O474   2.350       .  S
Eu471       O473   2.354       .  S
Eu471       O486   2.359       .  S
Eu472       O473   2.347       .  S
Eu472       O484   2.355       .  S
Eu472       O486   2.357       .  S
Eu472       O474   2.355       .  S
C475       C1502   1.479       .  S
C476       C1037   1.472       .  S
C477       C1433   1.476       .  S
C478        C965   1.473       .  S
C479       C1469   1.467       .  S
C480        C623   1.476       .  S
C481        C695   1.470       .  S
C482       C1073   1.472       .  S
H483        O484   0.964       .  S
H485        O486   0.965       .  S
O487        C498   1.288       .  A
O487       Eu523   2.440       .  S
O488        C499   1.292       .  A
O488       Eu522   2.472       .  S
O489        C500   1.291       .  A
O489       Eu495   2.466       .  S
O490        C501   1.290       .  A
O490       Eu495   2.444       .  S
O491        C501   1.287       .  A
O491       Eu525   2.443       .  S
O492        C500   1.293       .  A
O492       Eu524   2.468       .  S
O493        C499   1.290       .  A
O493       Eu495   2.451       .  S
O494        C498   1.291       .  A
O494       Eu495   2.460       .  S
Eu495       O505   2.356       .  S
Eu495       O497   2.348       .  S
Eu495       O496   2.354       .  S
Eu495       O503   2.347       .  S
O496       Eu525   2.352       .  S
O496       Eu522   2.352       .  S
O497       Eu523   2.354       .  S
O497       Eu524   2.351       .  S
C498       C1790   1.467       .  S
C499       C1217   1.475       .  S
C500        C818   1.479       .  S
C501       C1322   1.459       .  S
H502        O503   0.966       .  S
O503       Eu524   2.353       .  S
O503       Eu522   2.357       .  S
H504        O505   0.966       .  S
O505       Eu523   2.349       .  S
O505       Eu525   2.359       .  S
O506        C529   1.294       .  A
O506       Eu522   2.472       .  S
O507        C530   1.288   1_655  A
O507       Eu523   2.447   1_545  S
O508        C531   1.292       .  A
O508       Eu524   2.459       .  S
O509        C532   1.293       .  A
O509       Eu525   2.480       .  S
O510        C533   1.292       .  A
O510       Eu525   2.464       .  S
O511        C534   1.290       .  A
O511       Eu524   2.456   1_545  S
O512        C535   1.291       .  A
O512       Eu526   2.453   1_545  S
O513        C536   1.290       .  A
O513       Eu526   2.457   1_455  S
O514        C535   1.293       .  A
O514       Eu524   2.471   1_545  S
O515        C536   1.289   1_655  A
O515       Eu525   2.443       .  S
O516        C531   1.290       .  A
O516       Eu522   2.456       .  S
O517        C534   1.290       .  A
O517       Eu523   2.449   1_545  S
O518        C533   1.291       .  A
O518       Eu523   2.469       .  S
O519        C532   1.290       .  A
O519       Eu522   2.449       .  S
O520        C529   1.289       .  A
O520       Eu526   2.453       .  S
O521        C530   1.292       .  A
O521       Eu526   2.465   1_445  S
Eu522       O540   2.351       .  S
Eu522       O528   2.357       .  S
Eu523       O527   2.349       .  S
Eu523       O538   2.351       .  S
Eu524       O538   2.359       .  S
Eu524       O528   2.355       .  S
Eu525       O527   2.351       .  S
Eu525       O540   2.347       .  S
Eu526       O527   2.348       .  S
Eu526       O538   2.344       .  S
Eu526       O540   2.353       .  S
Eu526       O528   2.358       .  S
C529       C1523   1.475       .  S
C530       C1232   1.472       .  S
C531        C929   1.470       .  S
C532       C1664   1.479       .  S
C533        C857   1.478   1_655  S
C534       C1646   1.465       .  S
C535       C1091   1.475       .  S
C536        C782   1.465       .  S
H537        O538   0.966   1_545  S
H539        O540   0.966       .  S
C541        N547   1.341       .  A
C541        C546   1.385       .  A
C541        C542   1.396       .  A
C542        C543   1.396       .  A
C542        H553   1.083       .  S
C543        C552   1.365       .  A
C543        C544   1.383       .  A
C544        N550   1.354   1_655  A
C544        C545   1.412   1_655  A
C545        C546   1.414   1_455  A
C545        H554   1.082       .  S
C546        C549   1.387       .  A
N547        C548   1.352       .  A
N547        H557   1.045       .  S
C548        C549   1.404       .  A
C549        H555   1.082   1_655  S
N550        C551   1.360   1_455  A
N550        H558   1.044       .  S
C551        C552   1.394       .  A
C552        H556   1.083       .  S
C559        N565   1.331       .  A
C559        C564   1.384       .  A
C559        C560   1.394       .  A
C560        C561   1.390       .  A
C560        H571   1.083       .  S
C561        C570   1.366       .  A
C561        C562   1.384       .  A
C562        N568   1.347       .  A
C562        C563   1.412       .  A
C563        C564   1.411       .  A
C563        H572   1.082       .  S
C564        C567   1.392       .  A
N565        C566   1.353       .  A
N565        H575   1.045       .  S
C566        C567   1.402       .  A
C567        H573   1.082       .  S
N568        C569   1.359       .  A
N568        H576   1.045       .  S
C569        C570   1.389       .  A
C570        H574   1.083       .  S
C577        N583   1.351       .  A
C577        C582   1.384       .  A
C577        C578   1.408       .  A
C578        C579   1.410       .  A
C578        H589   1.082       .  S
C579        C588   1.384       .  A
C579        C580   1.385       .  A
C580        N586   1.339       .  A
C580        C581   1.396       .  A
C581        C582   1.396       .  A
C581        H590   1.083       .  S
C582        C585   1.365       .  A
N583        C584   1.358       .  A
N583        H593   1.044       .  S
C584        C585   1.394       .  A
C585        H591   1.083       .  S
N586        C587   1.353       .  A
N586        H594   1.045       .  S
C587        C588   1.399       .  A
C588        H592   1.082       .  S
C595        N601   1.353       .  A
C595        C600   1.384       .  A
C595        C596   1.410       .  A
C596        C597   1.412       .  A
C596        H607   1.082       .  S
C597        C606   1.384       .  A
C597        C598   1.385       .  A
C598        N604   1.338       .  A
C598        C599   1.394       .  A
C599        C600   1.394       .  A
C599        H608   1.083       .  S
C600        C603   1.362       .  A
N601        C602   1.359       .  A
N601        H611   1.044       .  S
C602        C603   1.393       .  A
C603        H609   1.083       .  S
N604        C605   1.352       .  A
N604        H612   1.045       .  S
C605        C606   1.400       .  A
C606        H610   1.082       .  S
C613        N619   1.353   1_455  A
C613        C618   1.384       .  A
C613        C614   1.411       .  A
C614        C615   1.412       .  A
C614        H625   1.082       .  S
C615        C624   1.386       .  A
C615        C616   1.385       .  A
C616        N622   1.339       .  A
C616        C617   1.395       .  A
C617        C618   1.395       .  A
C617        H626   1.083       .  S
C618        C621   1.364   1_455  A
N619        C620   1.360       .  A
N619        H629   1.044       .  S
C620        C621   1.393       .  A
C621        H627   1.083       .  S
N622        C623   1.353       .  A
N622        H630   1.045       .  S
C623        C624   1.401       .  A
C624        H628   1.082       .  S
C631        N637   1.352       .  A
C631        C636   1.384       .  A
C631        C632   1.411       .  A
C632        C633   1.412       .  A
C632        H643   1.082       .  S
C633        C642   1.386       .  A
C633        C634   1.385       .  A
C634        N640   1.338       .  A
C634        C635   1.394       .  A
C635        C636   1.394       .  A
C635        H644   1.083       .  S
C636        C639   1.365       .  A
N637        C638   1.359       .  A
N637        H647   1.044       .  S
C638        C639   1.392       .  A
C639        H645   1.083       .  S
N640        C641   1.352       .  A
N640        H648   1.045       .  S
C641        C642   1.402       .  A
C642        H646   1.082       .  S
C649        N655   1.338       .  A
C649        C654   1.384       .  A
C649        C650   1.399       .  A
C650        C651   1.397       .  A
C650        H661   1.083       .  S
C651        C660   1.373       .  A
C651        C652   1.384       .  A
C652        N658   1.349       .  A
C652        C653   1.410       .  A
C653        C654   1.409       .  A
C653        H662   1.082       .  S
C654        C657   1.387       .  A
N655        C656   1.355       .  A
N655        H665   1.045       .  S
C656        C657   1.398       .  A
C657        H663   1.082       .  S
N658        C659   1.359       .  A
N658        H666   1.044       .  S
C659        C660   1.394       .  A
C660        H664   1.083       .  S
C667        N673   1.334       .  A
C667        C672   1.384       .  A
C667        C668   1.394       .  A
C668        C669   1.391       .  A
C668        H679   1.083       .  S
C669        C678   1.366       .  A
C669        C670   1.383       .  A
C670        N676   1.350       .  A
C670        C671   1.413       .  A
C671        C672   1.412       .  A
C671        H680   1.082       .  S
C672        C675   1.391       .  A
N673        C674   1.352       .  A
N673        H683   1.045       .  S
C674        C675   1.402       .  A
C675        H681   1.082       .  S
N676        C677   1.361       .  A
N676        H684   1.045       .  S
C677        C678   1.389       .  A
C678        H682   1.083       .  S
C685        N691   1.334       .  A
C685        C690   1.384       .  A
C685        C686   1.395       .  A
C686        C687   1.392       .  A
C686        H697   1.083       .  S
C687        C696   1.367   1_655  A
C687        C688   1.384       .  A
C688        N694   1.349       .  A
C688        C689   1.411       .  A
C689        C690   1.410       .  A
C689        H698   1.082       .  S
C690        C693   1.389       .  A
N691        C692   1.354       .  A
N691        H701   1.045       .  S
C692        C693   1.400       .  A
C693        H699   1.082       .  S
N694        C695   1.360   1_655  A
N694        H702   1.045       .  S
C695        C696   1.390       .  A
C696        H700   1.083       .  S
C703        N709   1.339       .  A
C703        C708   1.385       .  A
C703        C704   1.395       .  A
C704        C705   1.395       .  A
C704        H715   1.083       .  S
C705        C714   1.365       .  A
C705        C706   1.384       .  A
C706        N712   1.351       .  A
C706        C707   1.408       .  A
C707        C708   1.409       .  A
C707        H716   1.082       .  S
C708        C711   1.382       .  A
N709        C710   1.353       .  A
N709        H719   1.045       .  S
C710        C711   1.399       .  A
C711        H717   1.082       .  S
N712        C713   1.358       .  A
N712        H720   1.044       .  S
C713        C714   1.393       .  A
C714        H718   1.083       .  S
C721        N727   1.350       .  A
C721        C726   1.385       .  A
C721        C722   1.406       .  A
C722        C723   1.408       .  A
C722        H733   1.082       .  S
C723        C732   1.380       .  A
C723        C724   1.385       .  A
C724        N730   1.339       .  A
C724        C725   1.396       .  A
C725        C726   1.397       .  A
C725        H734   1.083       .  S
C726        C729   1.365       .  A
N727        C728   1.356       .  A
N727        H737   1.044       .  S
C728        C729   1.394       .  A
C729        H735   1.083       .  S
N730        C731   1.353       .  A
N730        H738   1.045       .  S
C731        C732   1.397       .  A
C732        H736   1.082       .  S
C739        N745   1.351       .  A
C739        C744   1.385       .  A
C739        C740   1.407       .  A
C740        C741   1.408       .  A
C740        H751   1.082       .  S
C741        C750   1.381       .  A
C741        C742   1.385       .  A
C742        N748   1.339       .  A
C742        C743   1.395       .  A
C743        C744   1.396       .  A
C743        H752   1.083       .  S
C744        C747   1.363       .  A
N745        C746   1.357       .  A
N745        H755   1.044       .  S
C746        C747   1.393       .  A
C747        H753   1.083       .  S
N748        C749   1.352       .  A
N748        H756   1.045       .  S
C749        C750   1.398       .  A
C750        H754   1.082       .  S
C757        N763   1.350       .  A
C757        C762   1.384       .  A
C757        C758   1.407       .  A
C758        C759   1.409       .  A
C758        H769   1.082       .  S
C759        C768   1.382       .  A
C759        C760   1.385       .  A
C760        N766   1.338       .  A
C760        C761   1.394       .  A
C761        C762   1.394       .  A
C761        H770   1.083       .  S
C762        C765   1.362       .  A
N763        C764   1.357       .  A
N763        H773   1.044       .  S
C764        C765   1.392       .  A
C765        H771   1.083       .  S
N766        C767   1.352       .  A
N766        H774   1.045       .  S
C767        C768   1.399       .  A
C768        H772   1.082       .  S
C775        N781   1.346       .  A
C775        C780   1.384       .  A
C775        C776   1.408       .  A
C776        C777   1.407       .  A
C776        H787   1.082       .  S
C777        C786   1.386       .  A
C777        C778   1.385       .  A
C778        N784   1.332       .  A
C778        C779   1.395       .  A
C779        C780   1.392       .  A
C779        H788   1.083       .  S
C780        C783   1.367       .  A
N781        C782   1.358       .  A
N781        H791   1.045       .  S
C782        C783   1.390       .  A
C783        H789   1.083       .  S
N784        C785   1.353       .  A
N784        H792   1.045       .  S
C785        C786   1.397       .  A
C786        H790   1.082       .  S
C793        N799   1.332       .  A
C793        C798   1.384       .  A
C793        C794   1.393       .  A
C794        C795   1.390       .  A
C794        H805   1.083       .  S
C795        C804   1.367       .  A
C795        C796   1.383       .  A
C796        N802   1.349       .  A
C796        C797   1.414       .  A
C797        C798   1.412       .  A
C797        H806   1.082       .  S
C798        C801   1.392       .  A
N799        C800   1.351       .  A
N799        H809   1.045       .  S
C800        C801   1.403       .  A
C801        H807   1.082       .  S
N802        C803   1.361       .  A
N802        H810   1.045       .  S
C803        C804   1.389       .  A
C804        H808   1.083       .  S
C811        N817   1.339       .  A
C811        C816   1.384       .  A
C811        C812   1.396       .  A
C812        C813   1.396       .  A
C812        H823   1.083       .  S
C813        C822   1.367       .  A
C813        C814   1.383       .  A
C814        N820   1.353       .  A
C814        C815   1.413       .  A
C815        C816   1.414       .  A
C815        H824   1.082       .  S
C816        C819   1.389       .  A
N817        C818   1.353       .  A
N817        H827   1.045       .  S
C818        C819   1.403       .  A
C819        H825   1.082       .  S
N820        C821   1.360       .  A
N820        H828   1.044       .  S
C821        C822   1.393       .  A
C822        H826   1.083       .  S
C829        N835   1.353       .  A
C829        C834   1.384       .  A
C829        C830   1.412       .  A
C830        C831   1.413       .  A
C830        H841   1.082       .  S
C831        C840   1.386       .  A
C831        C832   1.385       .  A
C832        N838   1.337       .  A
C832        C833   1.393       .  A
C833        C834   1.393       .  A
C833        H842   1.083       .  S
C834        C837   1.363       .  A
N835        C836   1.360       .  A
N835        H845   1.044       .  S
C836        C837   1.391       .  A
C837        H843   1.083       .  S
N838        C839   1.351       .  A
N838        H846   1.045       .  S
C839        C840   1.402       .  A
C840        H844   1.082       .  S
C847        N853   1.335       .  A
C847        C852   1.384   1_565  A
C847        C848   1.397       .  A
C848        C849   1.394       .  A
C848        H859   1.083       .  S
C849        C858   1.371       .  A
C849        C850   1.383   1_565  A
C850        N856   1.350       .  A
C850        C851   1.413       .  A
C851        C852   1.412       .  A
C851        H860   1.082       .  S
C852        C855   1.392       .  A
N853        C854   1.353   1_565  A
N853        H863   1.045       .  S
C854        C855   1.401       .  A
C855        H861   1.082       .  S
N856        C857   1.361   1_545  A
N856        H864   1.044       .  S
C857        C858   1.392       .  A
C858        H862   1.083       .  S
C865        N871   1.333       .  A
C865        C870   1.384       .  A
C865        C866   1.396       .  A
C866        C867   1.393       .  A
C866        H877   1.083       .  S
C867        C876   1.369       .  A
C867        C868   1.384       .  A
C868        N874   1.347       .  A
C868        C869   1.410       .  A
C869        C870   1.408       .  A
C869        H878   1.082       .  S
C870        C873   1.389       .  A
N871        C872   1.353       .  A
N871        H881   1.045       .  S
C872        C873   1.399       .  A
C873        H879   1.082       .  S
N874        C875   1.358       .  A
N874        H882   1.044       .  S
C875        C876   1.392       .  A
C876        H880   1.083       .  S
C883        N889   1.350       .  A
C883        C888   1.384       .  A
C883        C884   1.409       .  A
C884        C885   1.409       .  A
C884        H895   1.082       .  S
C885        C894   1.384       .  A
C885        C886   1.385       .  A
C886        N892   1.336       .  A
C886        C887   1.393       .  A
C887        C888   1.393       .  A
C887        H896   1.083       .  S
C888        C891   1.363       .  A
N889        C890   1.358       .  A
N889        H899   1.044       .  S
C890        C891   1.393       .  A
C891        H897   1.083       .  S
N892        C893   1.351       .  A
N892        H900   1.045       .  S
C893        C894   1.399       .  A
C894        H898   1.082       .  S
C901        N907   1.350       .  A
C901        C906   1.385       .  A
C901        C902   1.408       .  A
C902        C903   1.409   1_565  A
C902        H913   1.082       .  S
C903        C912   1.383       .  A
C903        C904   1.385       .  A
C904        N910   1.339       .  A
C904        C905   1.395       .  A
C905        C906   1.396   1_545  A
C905        H914   1.083       .  S
C906        C909   1.365       .  A
N907        C908   1.358       .  A
N907        H917   1.044       .  S
C908        C909   1.392       .  A
C909        H915   1.083       .  S
N910        C911   1.353       .  A
N910        H918   1.045       .  S
C911        C912   1.399       .  A
C912        H916   1.082       .  S
C919        N925   1.350       .  A
C919        C924   1.384       .  A
C919        C920   1.409       .  A
C920        C921   1.410       .  A
C920        H931   1.082       .  S
C921        C930   1.385       .  A
C921        C922   1.385       .  A
C922        N928   1.337       .  A
C922        C923   1.394       .  A
C923        C924   1.393       .  A
C923        H932   1.083       .  S
C924        C927   1.364       .  A
N925        C926   1.358       .  A
N925        H935   1.044       .  S
C926        C927   1.391       .  A
C927        H933   1.083       .  S
N928        C929   1.352       .  A
N928        H936   1.045       .  S
C929        C930   1.400       .  A
C930        H934   1.082       .  S
C937        N943   1.331       .  A
C937        C942   1.384       .  A
C937        C938   1.393       .  A
C938        C939   1.390       .  A
C938        H949   1.083       .  S
C939        C948   1.367       .  A
C939        C940   1.384       .  A
C940        N946   1.347       .  A
C940        C941   1.411       .  A
C941        C942   1.410       .  A
C941        H950   1.082       .  S
C942        C945   1.390       .  A
N943        C944   1.352       .  A
N943        H953   1.045       .  S
C944        C945   1.400       .  A
C945        H951   1.082       .  S
N946        C947   1.359       .  A
N946        H954   1.044       .  S
C947        C948   1.390       .  A
C948        H952   1.083       .  S
C955        N961   1.335       .  A
C955        C960   1.384       .  A
C955        C956   1.397       .  A
C956        C957   1.395       .  A
C956        H967   1.083       .  S
C957        C966   1.370       .  A
C957        C958   1.384       .  A
C958        N964   1.348       .  A
C958        C959   1.409       .  A
C959        C960   1.408       .  A
C959        H968   1.082       .  S
C960        C963   1.387       .  A
N961        C962   1.355       .  A
N961        H971   1.045       .  S
C962        C963   1.398       .  A
C963        H969   1.082       .  S
N964        C965   1.358       .  A
N964        H972   1.044       .  S
C965        C966   1.393       .  A
C966        H970   1.083       .  S
C973        N979   1.339       .  A
C973        C978   1.385   1_565  A
C973        C974   1.396       .  A
C974        C975   1.396       .  A
C974        H985   1.083       .  S
C975        C984   1.367       .  A
C975        C976   1.385   1_565  A
C976        N982   1.349       .  A
C976        C977   1.407       .  A
C977        C978   1.407       .  A
C977        H986   1.082       .  S
C978        C981   1.381       .  A
N979        C980   1.353       .  A
N979        H989   1.045       .  S
C980        C981   1.397   1_565  A
C981        H987   1.082       .  S
N982        C983   1.357       .  A
N982        H990   1.044       .  S
C983        C984   1.392   1_545  A
C984        H988   1.083       .  S
C991        N997   1.336       .  A
C991        C996   1.384       .  A
C991        C992   1.398       .  A
C992        C993   1.395       .  A
C992       H1003   1.083       .  S
C993       C1002   1.373       .  A
C993        C994   1.384       .  A
C994       N1000   1.347       .  A
C994        C995   1.411       .  A
C995        C996   1.409       .  A
C995       H1004   1.082       .  S
C996        C999   1.389       .  A
N997        C998   1.354       .  A
N997       H1007   1.045       .  S
C998        C999   1.399       .  A
C999       H1005   1.082       .  S
N1000      C1001   1.359       .  A
N1000      H1008   1.045       .  S
C1001      C1002   1.392       .  A
C1002      H1006   1.083       .  S
C1009      N1015   1.334       .  A
C1009      C1014   1.385       .  A
C1009      C1010   1.397       .  A
C1010      C1011   1.395       .  A
C1010      H1021   1.083       .  S
C1011      C1020   1.371       .  A
C1011      C1012   1.385       .  A
C1012      N1018   1.344       .  A
C1012      C1013   1.406       .  A
C1013      C1014   1.404       .  A
C1013      H1022   1.082       .  S
C1014      C1017   1.384       .  A
N1015      C1016   1.354       .  A
N1015      H1025   1.045       .  S
C1016      C1017   1.396       .  A
C1017      H1023   1.082       .  S
N1018      C1019   1.356       .  A
N1018      H1026   1.044       .  S
C1019      C1020   1.392       .  A
C1020      H1024   1.083       .  S
C1027      N1033   1.351       .  A
C1027      C1032   1.384       .  A
C1027      C1028   1.408       .  A
C1028      C1029   1.410       .  A
C1028      H1039   1.082       .  S
C1029      C1038   1.383   1_655  A
C1029      C1030   1.385       .  A
C1030      N1036   1.338       .  A
C1030      C1031   1.395       .  A
C1031      C1032   1.395       .  A
C1031      H1040   1.083       .  S
C1032      C1035   1.363       .  A
N1033      C1034   1.358       .  A
N1033      H1043   1.044       .  S
C1034      C1035   1.393       .  A
C1035      H1041   1.083       .  S
N1036      C1037   1.352   1_655  A
N1036      H1044   1.045       .  S
C1037      C1038   1.400       .  A
C1038      H1042   1.082       .  S
C1045      N1051   1.352       .  A
C1045      C1050   1.384       .  A
C1045      C1046   1.409       .  A
C1046      C1047   1.411       .  A
C1046      H1057   1.082       .  S
C1047      C1056   1.383       .  A
C1047      C1048   1.385       .  A
C1048      N1054   1.338       .  A
C1048      C1049   1.394       .  A
C1049      C1050   1.395       .  A
C1049      H1058   1.083       .  S
C1050      C1053   1.363       .  A
N1051      C1052   1.359       .  A
N1051      H1061   1.044       .  S
C1052      C1053   1.393       .  A
C1053      H1059   1.083       .  S
N1054      C1055   1.351       .  A
N1054      H1062   1.045       .  S
C1055      C1056   1.400       .  A
C1056      H1060   1.082       .  S
C1063      N1069   1.354       .  A
C1063      C1068   1.384       .  A
C1063      C1064   1.411       .  A
C1064      C1065   1.412       .  A
C1064      H1075   1.082       .  S
C1065      C1074   1.386       .  A
C1065      C1066   1.385       .  A
C1066      N1072   1.337       .  A
C1066      C1067   1.393       .  A
C1067      C1068   1.394       .  A
C1067      H1076   1.083       .  S
C1068      C1071   1.363       .  A
N1069      C1070   1.360       .  A
N1069      H1079   1.044       .  S
C1070      C1071   1.393       .  A
C1071      H1077   1.083       .  S
N1072      C1073   1.352       .  A
N1072      H1080   1.045       .  S
C1073      C1074   1.401       .  A
C1074      H1078   1.082       .  S
C1081      N1087   1.353       .  A
C1081      C1086   1.384   1_655  A
C1081      C1082   1.411       .  A
C1082      C1083   1.412       .  A
C1082      H1093   1.082       .  S
C1083      C1092   1.386       .  A
C1083      C1084   1.385       .  A
C1084      N1090   1.339       .  A
C1084      C1085   1.396   1_655  A
C1085      C1086   1.396       .  A
C1085      H1094   1.083       .  S
C1086      C1089   1.365       .  A
N1087      C1088   1.359   1_655  A
N1087      H1097   1.044       .  S
C1088      C1089   1.394       .  A
C1089      H1095   1.083       .  S
N1090      C1091   1.354       .  A
N1090      H1098   1.045   1_655  S
C1091      C1092   1.400       .  A
C1092      H1096   1.082       .  S
C1099      N1105   1.340       .  A
C1099      C1104   1.385       .  A
C1099      C1100   1.396       .  A
C1100      C1101   1.397       .  A
C1100      H1111   1.083       .  S
C1101      C1110   1.366       .  A
C1101      C1102   1.384       .  A
C1102      N1108   1.352       .  A
C1102      C1103   1.409       .  A
C1103      C1104   1.410       .  A
C1103      H1112   1.082       .  S
C1104      C1107   1.384       .  A
N1105      C1106   1.353       .  A
N1105      H1115   1.045       .  S
C1106      C1107   1.400       .  A
C1107      H1113   1.082       .  S
N1108      C1109   1.358       .  A
N1108      H1116   1.044       .  S
C1109      C1110   1.393       .  A
C1110      H1114   1.083       .  S
C1117      N1123   1.333       .  A
C1117      C1122   1.384       .  A
C1117      C1118   1.395       .  A
C1118      C1119   1.392       .  A
C1118      H1129   1.083       .  S
C1119      C1128   1.369       .  A
C1119      C1120   1.384       .  A
C1120      N1126   1.347       .  A
C1120      C1121   1.411       .  A
C1121      C1122   1.409       .  A
C1121      H1130   1.082       .  S
C1122      C1125   1.389       .  A
N1123      C1124   1.353       .  A
N1123      H1133   1.045       .  S
C1124      C1125   1.399       .  A
C1125      H1131   1.082       .  S
N1126      C1127   1.359       .  A
N1126      H1134   1.045       .  S
C1127      C1128   1.390       .  A
C1128      H1132   1.083       .  S
C1135      N1141   1.346       .  A
C1135      C1140   1.384       .  A
C1135      C1136   1.409       .  A
C1136      C1137   1.408       .  A
C1136      H1147   1.082       .  S
C1137      C1146   1.388       .  A
C1137      C1138   1.384       .  A
C1138      N1144   1.331       .  A
C1138      C1139   1.393       .  A
C1139      C1140   1.390       .  A
C1139      H1148   1.083       .  S
C1140      C1143   1.366       .  A
N1141      C1142   1.358       .  A
N1141      H1151   1.045       .  S
C1142      C1143   1.389       .  A
C1143      H1149   1.083       .  S
N1144      C1145   1.353       .  A
N1144      H1152   1.045       .  S
C1145      C1146   1.399       .  A
C1146      H1150   1.082       .  S
C1153      N1159   1.331       .  A
C1153      C1158   1.384       .  A
C1153      C1154   1.392       .  A
C1154      C1155   1.389       .  A
C1154      H1165   1.083       .  S
C1155      C1164   1.365       .  A
C1155      C1156   1.384       .  A
C1156      N1162   1.348       .  A
C1156      C1157   1.411       .  A
C1157      C1158   1.410       .  A
C1157      H1166   1.082       .  S
C1158      C1161   1.389       .  A
N1159      C1160   1.352       .  A
N1159      H1169   1.045       .  S
C1160      C1161   1.400       .  A
C1161      H1167   1.082       .  S
N1162      C1163   1.360       .  A
N1162      H1170   1.044       .  S
C1163      C1164   1.389       .  A
C1164      H1168   1.083       .  S
C1171      N1177   1.351       .  A
C1171      C1176   1.384       .  A
C1171      C1172   1.408       .  A
C1172      C1173   1.409       .  A
C1172      H1183   1.082       .  S
C1173      C1182   1.382       .  A
C1173      C1174   1.385       .  A
C1174      N1180   1.339       .  A
C1174      C1175   1.396       .  A
C1175      C1176   1.396       .  A
C1175      H1184   1.083   1_564  S
C1176      C1179   1.365       .  A
N1177      C1178   1.357       .  A
N1177      H1187   1.044       .  S
C1178      C1179   1.393       .  A
C1179      H1185   1.083   1_564  S
N1180      C1181   1.352       .  A
N1180      H1188   1.045       .  S
C1181      C1182   1.399       .  A
C1182      H1186   1.082       .  S
C1189      N1195   1.333       .  A
C1189      C1194   1.384       .  A
C1189      C1190   1.394       .  A
C1190      C1191   1.391       .  A
C1190      H1201   1.083       .  S
C1191      C1200   1.369       .  A
C1191      C1192   1.383       .  A
C1192      N1198   1.350       .  A
C1192      C1193   1.415       .  A
C1193      C1194   1.414       .  A
C1193      H1202   1.082       .  S
C1194      C1197   1.394       .  A
N1195      C1196   1.352       .  A
N1195      H1205   1.045       .  S
C1196      C1197   1.403       .  A
C1197      H1203   1.082       .  S
N1198      C1199   1.362       .  A
N1198      H1206   1.045       .  S
C1199      C1200   1.389       .  A
C1200      H1204   1.083       .  S
C1207      N1213   1.336       .  A
C1207      C1212   1.384       .  A
C1207      C1208   1.398       .  A
C1208      C1209   1.396       .  A
C1208      H1219   1.083       .  S
C1209      C1218   1.371       .  A
C1209      C1210   1.384       .  A
C1210      N1216   1.349       .  A
C1210      C1211   1.411       .  A
C1211      C1212   1.410       .  A
C1211      H1220   1.082       .  S
C1212      C1215   1.389       .  A
N1213      C1214   1.354       .  A
N1213      H1223   1.045       .  S
C1214      C1215   1.399       .  A
C1215      H1221   1.082       .  S
N1216      C1217   1.359       .  A
N1216      H1224   1.044       .  S
C1217      C1218   1.393       .  A
C1218      H1222   1.083       .  S
C1225      N1231   1.338       .  A
C1225      C1230   1.385       .  A
C1225      C1226   1.394       .  A
C1226      C1227   1.394       .  A
C1226      H1237   1.083       .  S
C1227      C1236   1.365       .  A
C1227      C1228   1.384       .  A
C1228      N1234   1.352       .  A
C1228      C1229   1.411       .  A
C1229      C1230   1.412       .  A
C1229      H1238   1.082       .  S
C1230      C1233   1.386       .  A
N1231      C1232   1.351       .  A
N1231      H1241   1.045       .  S
C1232      C1233   1.401       .  A
C1233      H1239   1.082       .  S
N1234      C1235   1.360       .  A
N1234      H1242   1.044       .  S
C1235      C1236   1.391       .  A
C1236      H1240   1.083       .  S
C1243      N1249   1.350       .  A
C1243      C1248   1.383       .  A
C1243      C1244   1.413       .  A
C1244      C1245   1.412       .  A
C1244      H1255   1.082       .  S
C1245      C1254   1.391       .  A
C1245      C1246   1.384       .  A
C1246      N1252   1.335       .  A
C1246      C1247   1.396       .  A
C1247      C1248   1.393       .  A
C1247      H1256   1.083       .  S
C1248      C1251   1.369       .  A
N1249      C1250   1.360       .  A
N1249      H1259   1.045       .  S
C1250      C1251   1.391       .  A
C1251      H1257   1.083       .  S
N1252      C1253   1.354       .  A
N1252      H1260   1.045       .  S
C1253      C1254   1.402       .  A
C1254      H1258   1.082       .  S
C1261      N1267   1.333       .  A
C1261      C1266   1.384       .  A
C1261      C1262   1.395       .  A
C1262      C1263   1.393       .  A
C1262      H1273   1.083       .  S
C1263      C1272   1.368       .  A
C1263      C1264   1.384       .  A
C1264      N1270   1.348       .  A
C1264      C1265   1.410       .  A
C1265      C1266   1.409       .  A
C1265      H1274   1.082       .  S
C1266      C1269   1.388       .  A
N1267      C1268   1.353       .  A
N1267      H1277   1.045       .  S
C1268      C1269   1.399       .  A
C1269      H1275   1.082       .  S
N1270      C1271   1.359       .  A
N1270      H1278   1.044       .  S
C1271      C1272   1.391       .  A
C1272      H1276   1.083       .  S
C1279      N1285   1.332       .  A
C1279      C1284   1.384       .  A
C1279      C1280   1.394       .  A
C1280      C1281   1.391       .  A
C1280      H1291   1.083       .  S
C1281      C1290   1.368       .  A
C1281      C1282   1.384       .  A
C1282      N1288   1.348   1_655  A
C1282      C1283   1.412       .  A
C1283      C1284   1.411       .  A
C1283      H1292   1.082       .  S
C1284      C1287   1.391       .  A
N1285      C1286   1.352       .  A
N1285      H1295   1.045       .  S
C1286      C1287   1.401       .  A
C1287      H1293   1.082       .  S
N1288      C1289   1.360       .  A
N1288      H1296   1.044       .  S
C1289      C1290   1.390   1_455  A
C1290      H1294   1.083       .  S
C1297      N1303   1.338       .  A
C1297      C1302   1.385       .  A
C1297      C1298   1.393       .  A
C1298      C1299   1.393       .  A
C1298      H1309   1.083       .  S
C1299      C1308   1.362       .  A
C1299      C1300   1.384       .  A
C1300      N1306   1.352       .  A
C1300      C1301   1.410       .  A
C1301      C1302   1.412       .  A
C1301      H1310   1.082       .  S
C1302      C1305   1.385       .  A
N1303      C1304   1.351       .  A
N1303      H1313   1.045       .  S
C1304      C1305   1.402       .  A
C1305      H1311   1.082       .  S
N1306      C1307   1.359       .  A
N1306      H1314   1.044       .  S
C1307      C1308   1.391       .  A
C1308      H1312   1.083       .  S
C1315      N1321   1.345       .  A
C1315      C1320   1.385       .  A
C1315      C1316   1.408       .  A
C1316      C1317   1.407       .  A
C1316      H1327   1.082       .  S
C1317      C1326   1.385       .  A
C1317      C1318   1.385       .  A
C1318      N1324   1.332       .  A
C1318      C1319   1.392       .  A
C1319      C1320   1.389       .  A
C1319      H1328   1.083       .  S
C1320      C1323   1.363       .  A
N1321      C1322   1.358       .  A
N1321      H1331   1.045       .  S
C1322      C1323   1.388       .  A
C1323      H1329   1.083       .  S
N1324      C1325   1.351       .  A
N1324      H1332   1.045       .  S
C1325      C1326   1.398       .  A
C1326      H1330   1.082       .  S
C1333      N1339   1.335       .  A
C1333      C1338   1.384       .  A
C1333      C1334   1.396       .  A
C1334      C1335   1.394   1_565  A
C1334      H1345   1.083   1_565  S
C1335      C1344   1.368       .  A
C1335      C1336   1.384       .  A
C1336      N1342   1.350       .  A
C1336      C1337   1.412   1_545  A
C1337      C1338   1.411       .  A
C1337      H1346   1.082       .  S
C1338      C1341   1.390       .  A
N1339      C1340   1.353       .  A
N1339      H1349   1.045       .  S
C1340      C1341   1.400       .  A
C1341      H1347   1.082       .  S
N1342      C1343   1.360       .  A
N1342      H1350   1.044       .  S
C1343      C1344   1.392       .  A
C1344      H1348   1.083       .  S
C1351      N1357   1.354       .  A
C1351      C1356   1.383   1_655  A
C1351      C1352   1.412       .  A
C1352      C1353   1.414       .  A
C1352      H1363   1.082       .  S
C1353      C1362   1.388       .  A
C1353      C1354   1.385       .  A
C1354      N1360   1.339       .  A
C1354      C1355   1.396   1_655  A
C1355      C1356   1.395       .  A
C1355      H1364   1.083       .  S
C1356      C1359   1.365       .  A
N1357      C1358   1.360   1_655  A
N1357      H1367   1.044       .  S
C1358      C1359   1.392       .  A
C1359      H1365   1.083       .  S
N1360      C1361   1.353       .  A
N1360      H1368   1.045       .  S
C1361      C1362   1.402       .  A
C1362      H1366   1.082       .  S
C1369      N1375   1.351       .  A
C1369      C1374   1.384       .  A
C1369      C1370   1.409       .  A
C1370      C1371   1.410       .  A
C1370      H1381   1.082       .  S
C1371      C1380   1.382       .  A
C1371      C1372   1.385       .  A
C1372      N1378   1.339       .  A
C1372      C1373   1.395       .  A
C1373      C1374   1.395       .  A
C1373      H1382   1.083       .  S
C1374      C1377   1.364       .  A
N1375      C1376   1.358       .  A
N1375      H1385   1.044       .  S
C1376      C1377   1.392       .  A
C1377      H1383   1.083       .  S
N1378      C1379   1.353       .  A
N1378      H1386   1.045       .  S
C1379      C1380   1.398       .  A
C1380      H1384   1.082       .  S
C1387      N1393   1.335       .  A
C1387      C1392   1.384       .  A
C1387      C1388   1.395       .  A
C1388      C1389   1.393       .  A
C1388      H1399   1.083       .  S
C1389      C1398   1.368       .  A
C1389      C1390   1.384       .  A
C1390      N1396   1.350       .  A
C1390      C1391   1.412       .  A
C1391      C1392   1.411       .  A
C1391      H1400   1.082       .  S
C1392      C1395   1.390       .  A
N1393      C1394   1.354       .  A
N1393      H1403   1.045       .  S
C1394      C1395   1.400       .  A
C1395      H1401   1.082       .  S
N1396      C1397   1.360       .  A
N1396      H1404   1.044       .  S
C1397      C1398   1.391       .  A
C1398      H1402   1.083       .  S
C1405      N1411   1.337       .  A
C1405      C1410   1.385       .  A
C1405      C1406   1.394       .  A
C1406      C1407   1.394       .  A
C1406      H1417   1.083       .  S
C1407      C1416   1.363       .  A
C1407      C1408   1.384       .  A
C1408      N1414   1.351       .  A
C1408      C1409   1.409       .  A
C1409      C1410   1.410       .  A
C1409      H1418   1.082       .  S
C1410      C1413   1.383       .  A
N1411      C1412   1.352       .  A
N1411      H1421   1.045       .  S
C1412      C1413   1.399       .  A
C1413      H1419   1.082       .  S
N1414      C1415   1.359       .  A
N1414      H1422   1.044       .  S
C1415      C1416   1.393       .  A
C1416      H1420   1.083       .  S
C1423      N1429   1.336       .  A
C1423      C1428   1.384       .  A
C1423      C1424   1.398       .  A
C1424      C1425   1.395       .  A
C1424      H1435   1.083       .  S
C1425      C1434   1.372       .  A
C1425      C1426   1.384       .  A
C1426      N1432   1.349       .  A
C1426      C1427   1.412       .  A
C1427      C1428   1.410       .  A
C1427      H1436   1.082       .  S
C1428      C1431   1.390       .  A
N1429      C1430   1.354       .  A
N1429      H1439   1.045       .  S
C1430      C1431   1.400       .  A
C1431      H1437   1.082       .  S
N1432      C1433   1.360       .  A
N1432      H1440   1.044       .  S
C1433      C1434   1.392       .  A
C1434      H1438   1.083       .  S
C1441      N1447   1.334       .  A
C1441      C1446   1.384       .  A
C1441      C1442   1.396       .  A
C1442      C1443   1.393       .  A
C1442      H1453   1.083       .  S
C1443      C1452   1.369       .  A
C1443      C1444   1.384   1_545  A
C1444      N1450   1.349       .  A
C1444      C1445   1.412       .  A
C1445      C1446   1.411   1_565  A
C1445      H1454   1.082       .  S
C1446      C1449   1.391       .  A
N1447      C1448   1.354       .  A
N1447      H1457   1.045       .  S
C1448      C1449   1.400       .  A
C1449      H1455   1.082       .  S
N1450      C1451   1.360       .  A
N1450      H1458   1.044       .  S
C1451      C1452   1.391   1_565  A
C1452      H1456   1.083       .  S
C1459      N1465   1.351       .  A
C1459      C1464   1.384       .  A
C1459      C1460   1.409       .  A
C1460      C1461   1.410       .  A
C1460      H1471   1.082       .  S
C1461      C1470   1.383       .  A
C1461      C1462   1.385       .  A
C1462      N1468   1.336       .  A
C1462      C1463   1.392       .  A
C1463      C1464   1.393       .  A
C1463      H1472   1.083       .  S
C1464      C1467   1.362       .  A
N1465      C1466   1.358       .  A
N1465      H1475   1.044       .  S
C1466      C1467   1.392       .  A
C1467      H1473   1.083       .  S
N1468      C1469   1.351       .  A
N1468      H1476   1.045       .  S
C1469      C1470   1.400       .  A
C1470      H1474   1.082       .  S
C1477      N1483   1.347       .  A
C1477      C1482   1.384       .  A
C1477      C1478   1.410   1_545  A
C1478      C1479   1.409       .  A
C1478      H1489   1.082       .  S
C1479      C1488   1.389       .  A
C1479      C1480   1.384       .  A
C1480      N1486   1.335       .  A
C1480      C1481   1.397       .  A
C1481      C1482   1.394   1_565  A
C1481      H1490   1.083       .  S
C1482      C1485   1.370       .  A
N1483      C1484   1.359       .  A
N1483      H1493   1.045       .  S
C1484      C1485   1.392       .  A
C1485      H1491   1.083       .  S
N1486      C1487   1.355       .  A
N1486      H1494   1.045       .  S
C1487      C1488   1.399       .  A
C1488      H1492   1.082       .  S
C1495      N1501   1.342       .  A
C1495      C1500   1.385       .  A
C1495      C1496   1.398       .  A
C1496      C1497   1.398       .  A
C1496      H1507   1.083       .  S
C1497      C1506   1.367       .  A
C1497      C1498   1.384       .  A
C1498      N1504   1.354       .  A
C1498      C1499   1.411       .  A
C1499      C1500   1.413       .  A
C1499      H1508   1.082       .  S
C1500      C1503   1.385       .  A
N1501      C1502   1.354       .  A
N1501      H1511   1.045       .  S
C1502      C1503   1.401       .  A
C1503      H1509   1.082       .  S
N1504      C1505   1.360       .  A
N1504      H1512   1.044       .  S
C1505      C1506   1.394       .  A
C1506      H1510   1.083       .  S
C1513      N1519   1.354   1_655  A
C1513      C1518   1.384       .  A
C1513      C1514   1.411   1_655  A
C1514      C1515   1.413   1_455  A
C1514      H1525   1.082       .  S
C1515      C1524   1.385       .  A
C1515      C1516   1.385       .  A
C1516      N1522   1.340       .  A
C1516      C1517   1.395       .  A
C1517      C1518   1.396       .  A
C1517      H1526   1.083       .  S
C1518      C1521   1.364       .  A
N1519      C1520   1.359   1_455  A
N1519      H1529   1.044       .  S
C1520      C1521   1.394       .  A
C1521      H1527   1.083       .  S
N1522      C1523   1.352       .  A
N1522      H1530   1.045       .  S
C1523      C1524   1.401       .  A
C1524      H1528   1.082   1_655  S
C1531      N1537   1.351       .  A
C1531      C1536   1.384       .  A
C1531      C1532   1.408       .  A
C1532      C1533   1.410       .  A
C1532      H1543   1.082       .  S
C1533      C1542   1.382       .  A
C1533      C1534   1.385       .  A
C1534      N1540   1.338       .  A
C1534      C1535   1.394       .  A
C1535      C1536   1.395       .  A
C1535      H1544   1.083       .  S
C1536      C1539   1.363       .  A
N1537      C1538   1.358       .  A
N1537      H1547   1.044       .  S
C1538      C1539   1.393       .  A
C1539      H1545   1.083       .  S
N1540      C1541   1.351       .  A
N1540      H1548   1.045       .  S
C1541      C1542   1.399       .  A
C1542      H1546   1.082       .  S
C1549      N1555   1.348       .  A
C1549      C1554   1.384       .  A
C1549      C1550   1.411       .  A
C1550      C1551   1.410       .  A
C1550      H1561   1.082       .  S
C1551      C1560   1.389       .  A
C1551      C1552   1.385       .  A
C1552      N1558   1.335       .  A
C1552      C1553   1.396       .  A
C1553      C1554   1.394       .  A
C1553      H1562   1.083       .  S
C1554      C1557   1.370       .  A
N1555      C1556   1.359       .  A
N1555      H1565   1.045       .  S
C1556      C1557   1.391       .  A
C1557      H1563   1.083       .  S
N1558      C1559   1.353       .  A
N1558      H1566   1.045       .  S
C1559      C1560   1.400       .  A
C1560      H1564   1.082       .  S
C1567      N1573   1.335       .  A
C1567      C1572   1.385       .  A
C1567      C1568   1.396       .  A
C1568      C1569   1.394       .  A
C1568      H1579   1.083       .  S
C1569      C1578   1.368       .  A
C1569      C1570   1.384       .  A
C1570      N1576   1.347       .  A
C1570      C1571   1.407       .  A
C1571      C1572   1.406       .  A
C1571      H1580   1.082       .  S
C1572      C1575   1.385       .  A
N1573      C1574   1.354       .  A
N1573      H1583   1.045       .  S
C1574      C1575   1.397       .  A
C1575      H1581   1.082       .  S
N1576      C1577   1.357       .  A
N1576      H1584   1.044       .  S
C1577      C1578   1.393       .  A
C1578      H1582   1.083       .  S
C1585      N1591   1.349       .  A
C1585      C1590   1.384       .  A
C1585      C1586   1.411       .  A
C1586      C1587   1.410       .  A
C1586      H1597   1.082       .  S
C1587      C1596   1.388       .  A
C1587      C1588   1.385       .  A
C1588      N1594   1.333       .  A
C1588      C1589   1.393       .  A
C1589      C1590   1.391       .  A
C1589      H1598   1.083       .  S
C1590      C1593   1.365       .  A
N1591      C1592   1.360       .  A
N1591      H1601   1.044       .  S
C1592      C1593   1.390       .  A
C1593      H1599   1.083       .  S
N1594      C1595   1.352       .  A
N1594      H1602   1.045       .  S
C1595      C1596   1.400       .  A
C1596      H1600   1.082       .  S
C1603      N1609   1.353       .  A
C1603      C1608   1.384       .  A
C1603      C1604   1.412       .  A
C1604      C1605   1.412       .  A
C1604      H1615   1.082       .  S
C1605      C1614   1.388       .  A
C1605      C1606   1.385       .  A
C1606      N1612   1.337       .  A
C1606      C1607   1.394       .  A
C1607      C1608   1.394       .  A
C1607      H1616   1.083   1_554  S
C1608      C1611   1.364       .  A
N1609      C1610   1.360       .  A
N1609      H1619   1.044       .  S
C1610      C1611   1.392       .  A
C1611      H1617   1.083   1_554  S
N1612      C1613   1.352       .  A
N1612      H1620   1.045       .  S
C1613      C1614   1.402       .  A
C1614      H1618   1.082       .  S
C1621      N1627   1.336       .  A
C1621      C1626   1.385       .  A
C1621      C1622   1.392       .  A
C1622      C1623   1.392       .  A
C1622      H1633   1.083       .  S
C1623      C1632   1.361   1_455  A
C1623      C1624   1.384       .  A
C1624      N1630   1.351   1_455  A
C1624      C1625   1.410       .  A
C1625      C1626   1.411       .  A
C1625      H1634   1.082       .  S
C1626      C1629   1.385       .  A
N1627      C1628   1.352       .  A
N1627      H1637   1.045       .  S
C1628      C1629   1.401       .  A
C1629      H1635   1.082       .  S
N1630      C1631   1.359       .  A
N1630      H1638   1.044       .  S
C1631      C1632   1.390       .  A
C1632      H1636   1.083       .  S
C1639      N1645   1.337       .  A
C1639      C1644   1.385       .  A
C1639      C1640   1.395       .  A
C1640      C1641   1.395       .  A
C1640      H1651   1.083       .  S
C1641      C1650   1.365       .  A
C1641      C1642   1.385       .  A
C1642      N1648   1.349       .  A
C1642      C1643   1.407       .  A
C1643      C1644   1.407       .  A
C1643      H1652   1.082       .  S
C1644      C1647   1.381       .  A
N1645      C1646   1.352       .  A
N1645      H1655   1.045       .  S
C1646      C1647   1.397       .  A
C1647      H1653   1.082       .  S
N1648      C1649   1.357       .  A
N1648      H1656   1.044       .  S
C1649      C1650   1.393       .  A
C1650      H1654   1.083       .  S
C1657      N1663   1.351       .  A
C1657      C1662   1.383       .  A
C1657      C1658   1.413       .  A
C1658      C1659   1.412       .  A
C1658      H1669   1.082       .  S
C1659      C1668   1.392       .  A
C1659      C1660   1.384       .  A
C1660      N1666   1.335       .  A
C1660      C1661   1.397       .  A
C1661      C1662   1.395       .  A
C1661      H1670   1.083       .  S
C1662      C1665   1.371       .  A
N1663      C1664   1.360       .  A
N1663      H1673   1.044       .  S
C1664      C1665   1.393       .  A
C1665      H1671   1.083       .  S
N1666      C1667   1.354       .  A
N1666      H1674   1.045       .  S
C1667      C1668   1.402       .  A
C1668      H1672   1.082       .  S
C1675      N1681   1.333       .  A
C1675      C1680   1.384       .  A
C1675      C1676   1.395       .  A
C1676      C1677   1.392       .  A
C1676      H1687   1.083       .  S
C1677      C1686   1.369       .  A
C1677      C1678   1.383       .  A
C1678      N1684   1.350       .  A
C1678      C1679   1.414       .  A
C1679      C1680   1.412       .  A
C1679      H1688   1.082       .  S
C1680      C1683   1.393       .  A
N1681      C1682   1.352       .  A
N1681      H1691   1.045       .  S
C1682      C1683   1.403       .  A
C1683      H1689   1.082       .  S
N1684      C1685   1.361       .  A
N1684      H1692   1.044       .  S
C1685      C1686   1.391       .  A
C1686      H1690   1.083       .  S
C1693      N1699   1.337       .  A
C1693      C1698   1.385       .  A
C1693      C1694   1.394       .  A
C1694      C1695   1.394       .  A
C1694      H1705   1.083       .  S
C1695      C1704   1.363       .  A
C1695      C1696   1.384       .  A
C1696      N1702   1.351       .  A
C1696      C1697   1.408       .  A
C1697      C1698   1.408       .  A
C1697      H1706   1.082       .  S
C1698      C1701   1.382       .  A
N1699      C1700   1.352       .  A
N1699      H1709   1.045       .  S
C1700      C1701   1.397       .  A
C1701      H1707   1.082       .  S
N1702      C1703   1.358       .  A
N1702      H1710   1.044       .  S
C1703      C1704   1.393       .  A
C1704      H1708   1.083       .  S
C1711      N1717   1.336       .  A
C1711      C1716   1.384       .  A
C1711      C1712   1.398       .  A
C1712      C1713   1.396       .  A
C1712      H1723   1.083       .  S
C1713      C1722   1.371       .  A
C1713      C1714   1.384       .  A
C1714      N1720   1.348       .  A
C1714      C1715   1.409       .  A
C1715      C1716   1.407       .  A
C1715      H1724   1.082       .  S
C1716      C1719   1.386       .  A
N1717      C1718   1.355       .  A
N1717      H1727   1.045       .  S
C1718      C1719   1.397       .  A
C1719      H1725   1.082       .  S
N1720      C1721   1.358       .  A
N1720      H1728   1.044       .  S
C1721      C1722   1.393       .  A
C1722      H1726   1.083       .  S
C1729      N1735   1.335       .  A
C1729      C1734   1.384       .  A
C1729      C1730   1.397       .  A
C1730      C1731   1.394       .  A
C1730      H1741   1.083       .  S
C1731      C1740   1.370       .  A
C1731      C1732   1.384       .  A
C1732      N1738   1.347       .  A
C1732      C1733   1.410       .  A
C1733      C1734   1.408       .  A
C1733      H1742   1.082       .  S
C1734      C1737   1.388       .  A
N1735      C1736   1.354       .  A
N1735      H1745   1.045       .  S
C1736      C1737   1.399       .  A
C1737      H1743   1.082       .  S
N1738      C1739   1.358       .  A
N1738      H1746   1.045       .  S
C1739      C1740   1.391       .  A
C1740      H1744   1.083       .  S
C1747      N1753   1.353       .  A
C1747      C1752   1.384       .  A
C1747      C1748   1.410       .  A
C1748      C1749   1.411   1_565  A
C1748      H1759   1.082       .  S
C1749      C1758   1.384       .  A
C1749      C1750   1.385       .  A
C1750      N1756   1.338       .  A
C1750      C1751   1.395   1_545  A
C1751      C1752   1.395       .  A
C1751      H1760   1.083       .  S
C1752      C1755   1.364       .  A
N1753      C1754   1.359       .  A
N1753      H1763   1.044       .  S
C1754      C1755   1.393       .  A
C1755      H1761   1.083       .  S
N1756      C1757   1.353       .  A
N1756      H1764   1.045       .  S
C1757      C1758   1.399       .  A
C1758      H1762   1.082       .  S
C1765      N1771   1.351       .  A
C1765      C1770   1.384       .  A
C1765      C1766   1.409       .  A
C1766      C1767   1.410       .  A
C1766      H1777   1.082       .  S
C1767      C1776   1.383       .  A
C1767      C1768   1.385       .  A
C1768      N1774   1.335   1_655  A
C1768      C1769   1.391       .  A
C1769      C1770   1.391       .  A
C1769      H1778   1.083       .  S
C1770      C1773   1.360       .  A
N1771      C1772   1.359       .  A
N1771      H1781   1.044       .  S
C1772      C1773   1.391       .  A
C1773      H1779   1.083       .  S
N1774      C1775   1.350       .  A
N1774      H1782   1.045       .  S
C1775      C1776   1.400   1_455  A
C1776      H1780   1.082       .  S
C1783      N1789   1.337       .  A
C1783      C1788   1.385   1_545  A
C1783      C1784   1.395       .  A
C1784      C1785   1.395       .  A
C1784      H1795   1.083       .  S
C1785      C1794   1.364       .  A
C1785      C1786   1.385       .  A
C1786      N1792   1.350       .  A
C1786      C1787   1.407   1_545  A
C1787      C1788   1.408       .  A
C1787      H1796   1.082       .  S
C1788      C1791   1.382       .  A
N1789      C1790   1.353   1_545  A
N1789      H1799   1.045       .  S
C1790      C1791   1.398       .  A
C1791      H1797   1.082       .  S
N1792      C1793   1.357       .  A
N1792      H1800   1.044       .  S
C1793      C1794   1.393       .  A
C1794      H1798   1.083       .  S
C1801      N1807   1.353       .  A
C1801      C1806   1.384       .  A
C1801      C1802   1.409       .  A
C1802      C1803   1.410       .  A
C1802      H1813   1.082       .  S
C1803      C1812   1.383       .  A
C1803      C1804   1.385       .  A
C1804      N1810   1.340       .  A
C1804      C1805   1.396       .  A
C1805      C1806   1.397       .  A
C1805      H1814   1.083       .  S
C1806      C1809   1.364       .  A
N1807      C1808   1.358       .  A
N1807      H1817   1.044       .  S
C1808      C1809   1.395       .  A
C1809      H1815   1.083       .  S
N1810      C1811   1.354       .  A
N1810      H1818   1.045       .  S
C1811      C1812   1.399       .  A
C1812      H1816   1.082       .  S
C1819      N1825   1.354       .  A
C1819      C1824   1.384       .  A
C1819      C1820   1.412       .  A
C1820      C1821   1.414       .  A
C1820      H1831   1.082       .  S
C1821      C1830   1.386       .  A
C1821      C1822   1.385       .  A
C1822      N1828   1.336       .  A
C1822      C1823   1.390       .  A
C1823      C1824   1.391       .  A
C1823      H1832   1.083       .  S
C1824      C1827   1.358       .  A
N1825      C1826   1.360       .  A
N1825      H1835   1.044       .  S
C1826      C1827   1.390       .  A
C1827      H1833   1.083       .  S
N1828      C1829   1.349       .  A
N1828      H1836   1.045       .  S
C1829      C1830   1.403       .  A
C1830      H1834   1.082       .  S
