geometry optimzed in LAMMPS
_audit_creation_date              2020-11-30 
_audit_creation_method            'lammps2cif' 
_symmetry_space_group_name_H-M    'P1' 
_symmetry_Int_Tables_number       1 
_symmetry_cell_setting            triclinic 
loop_ 
_symmetry_equiv_pos_as_xyz 
  x,y,z 
_cell_length_a                    38.69461592 
_cell_length_b                    38.85257702782036 
_cell_length_c                    38.41615381306153 
_cell_angle_alpha                 90.24318793253374 
_cell_angle_beta                  88.90441601024531 
_cell_angle_gamma                 89.33534407211147 
loop_ 
_atom_site_label 
_atom_site_type_symbol 
_atom_site_fract_x 
_atom_site_fract_y 
_atom_site_fract_z 
_atom_site_charge 
O1          O  0.03170239  0.49250146  0.03490031    -0.72400
O2          O  0.43612842  0.48517885  0.01574458    -0.72600
O3          O  0.48372566  0.44398819  0.04037704    -0.72500
O4          O  0.48189063  0.03582184  0.00891927    -0.72500
O5          O  0.49712663  0.01830485  0.45492066    -0.72400
O6          O  0.49257720  0.42612990  0.48686918    -0.72400
O7          O  0.44782511  0.47076427  0.46250327    -0.72400
O8          O  0.04412500  0.47188858  0.48109813    -0.72600
V9          V  0.48425487  0.48917984  0.02309162     1.35200
V10         V  0.49515426  0.47292526  0.47192665     1.35200
C11         C  0.05399975  0.48129403  0.01289310     0.76900
C12         C  0.42603091  0.47550374  0.48691550     0.76900
C13         C  0.48627322  0.41881860  0.01962413     0.76800
C14         C  0.48883200  0.04286699  0.47549975     0.76700
O15         O  0.25725297  0.28955611  0.40202891    -0.68000
O16         O  0.26696512  0.19233368  0.39770669    -0.72600
O17         O  0.30704562  0.24397744  0.41594601    -0.72500
O18         O  0.21558235  0.23779076  0.38400117    -0.72500
O19         O  0.23303568  0.24326544  0.33051315    -0.72400
O20         O  0.32639807  0.24585202  0.36273171    -0.72400
O21         O  0.28421136  0.19680540  0.34372242    -0.72400
O22         O  0.27765264  0.29371594  0.34919614    -0.72600
V23         V  0.26179604  0.24111713  0.39874777     1.35200
V24         V  0.27970427  0.24497211  0.34742054     1.35200
C25         C  0.26787505  0.30818017  0.37717946     0.76900
C26         C  0.27940889  0.17848416  0.37035671     0.76900
C27         C  0.33254404  0.24363098  0.39497540     0.76800
C28         C  0.20807316  0.23966064  0.35214819     0.76700
C29         C  0.19939432  0.46361778  0.05824890    -0.03100
C30         C  0.22608738  0.05523347  0.17925038    -0.03100
C31         C  0.29225919  0.44561799  0.43049351    -0.03100
C32         C  0.30720142  0.04616597  0.31132959    -0.03100
O33         O  0.00607156  0.49170499  0.20122830    -0.72400
O34         O  0.01185050  0.08909713  0.22334155    -0.72600
O35         O  0.05400621  0.04131853  0.19520926    -0.72500
O36         O  0.46031286  0.04184387  0.22699554    -0.72500
O37         O  0.97799722  0.02574930  0.27984198    -0.72400
O38         O  0.07139787  0.03094460  0.24749873    -0.72400
O39         O  0.02703642  0.07543380  0.27564635    -0.72400
O40         O  0.02481740  0.48017967  0.25274971    -0.72600
V41         V  0.00828744  0.04041173  0.21307800     1.35200
V42         V  0.02482181  0.02824877  0.26288783     1.35200
C43         C  0.01712912  0.46949116  0.22281165     0.76900
C44         C  0.02270879  0.09843338  0.25297658     0.76900
C45         C  0.07850837  0.03781496  0.21595573     0.76800
C46         C  0.45238126  0.03408043  0.25801226     0.76700
O47         O  0.25277815  0.22769999  0.17358347    -0.72400
O48         O  0.24225482  0.31935426  0.14009402    -0.72600
O49         O  0.20083800  0.27526434  0.17159538    -0.72500
O50         O  0.29502825  0.27339629  0.14244484    -0.72500
O51         O  0.28069891  0.25409988  0.09158924    -0.72400
O52         O  0.18562331  0.25519265  0.12135916    -0.72400
O53         O  0.22692909  0.29912989  0.08996095    -0.72400
O54         O  0.23843251  0.20832163  0.12276587    -0.72600
V55         V  0.24760913  0.27332469  0.15597423     1.35200
V56         V  0.23342378  0.25430208  0.10744049     1.35200
C57         C  0.24676336  0.20242490  0.15376915     0.76900
C58         C  0.23065857  0.32452655  0.10993280     0.76900
C59         C  0.17713867  0.26798659  0.15076558     0.76800
C60         C  0.30389776  0.26437880  0.11194052     0.76700
C61         C  0.05616776  0.23273769  0.31966718    -0.03100
C62         C  0.46728398  0.19051297  0.44440392    -0.03100
C63         C  0.03832928  0.31811902  0.19511405    -0.03100
C64         C  0.45298654  0.28095576  0.07349363    -0.03100
C65         C  0.47654423  0.27760929  0.10712550    -0.06700
C66         C  0.46276507  0.27916592  0.14185870    -0.17900
C67         C  0.48429608  0.28258129  0.17098266     0.10500
C68         C  0.01483490  0.30073010  0.16573491    -0.06700
C69         C  0.02663320  0.30216279  0.13008811    -0.17900
C70         C  0.51267086  0.28250220  0.10532872     0.10500
S71         S  0.47460588  0.25251977  0.20512990    -0.32900
S72         S  0.54128126  0.25491677  0.08016276    -0.32900
H73         H  0.51803127  0.22741172  0.07868943     0.28500
H74         H  0.50919741  0.24353048  0.21103923     0.28500
H75         H  0.43570900  0.27589336  0.14761638     0.19100
H76         H  0.05100701  0.31352525  0.12289003     0.19100
C77         C  0.47231907  0.20991983  0.98166326    -0.06700
C78         C  0.49185451  0.24034900  0.98475606    -0.17900
C79         C  0.48970622  0.26232187  0.01458126     0.10500
C80         C  0.46515161  0.25521552  0.04265969    -0.06700
C81         C  0.44942532  0.22294895  0.03971946    -0.17900
C82         C  0.45813124  0.19881120  0.01414322     0.10500
S83         S  0.51911276  0.29854700  0.01432233    -0.32900
S84         S  0.45680037  0.15427510  0.02865639    -0.32900
H85         H  0.45159638  0.16069548  0.06446060     0.28500
H86         H  0.52877827  0.29766039  0.97884647     0.28500
H87         H  0.51230335  0.24588104  0.46540764     0.19100
H88         H  0.42993559  0.21459648  0.05719362     0.19100
C89         C  0.03461591  0.22624279  0.35381942    -0.06700
C90         C  0.03690879  0.19242654  0.36668106    -0.17900
C91         C  0.01352208  0.17930110  0.39089584     0.10500
C92         C  0.99410091  0.20235452  0.41348619    -0.06700
C93         C  0.99499048  0.23769478  0.40333556    -0.17900
C94         C  0.01356426  0.24964498  0.37377543     0.10500
S95         S  0.00550010  0.13377315  0.38413526    -0.32900
S96         S  0.01331233  0.29553055  0.36772767    -0.32900
H97         H  0.04934256  0.29718014  0.36384174     0.28500
H98         H  0.02155780  0.12947437  0.35115999     0.28500
H99         H  0.05516910  0.17455285  0.35464802     0.19100
H100        H  0.47876097  0.25597768  0.41903501     0.19100
C101        C  0.04729901  0.26693430  0.29846199    -0.06700
C102        C  0.01402931  0.27591463  0.28614375    -0.17900
C103        C  0.00962989  0.29714372  0.25644206     0.10500
C104        C  0.03848982  0.30341787  0.23399504    -0.06700
C105        C  0.07034971  0.30256943  0.25224141    -0.17900
C106        C  0.07308400  0.28945976  0.28591211     0.10500
S107        S  0.46804158  0.32057974  0.25265624    -0.32900
S108        S  0.10322369  0.30997142  0.31481419    -0.32900
H109        H  0.11625629  0.33413665  0.29090280     0.28500
H110        H  0.48307900  0.35320985  0.25541899     0.28500
H111        H  0.99162263  0.27092191  0.30204412     0.19100
H112        H  0.09348962  0.31379588  0.24136769     0.19100
C113        C  0.07563028  0.30759981  0.18066343    -0.06700
C114        C  0.08281645  0.27157455  0.17978357    -0.17900
C115        C  0.11396338  0.25754940  0.16715377     0.10500
C116        C  0.14133002  0.27966608  0.15897850    -0.06700
C117        C  0.13479015  0.31532877  0.15887031    -0.17900
C118        C  0.10164669  0.32930719  0.16611750     0.10500
S119        S  0.11589005  0.21150540  0.16180325    -0.32900
S120        S  0.09256803  0.37198012  0.14959344    -0.32900
H121        H  0.12563241  0.37899434  0.13577684     0.28500
H122        H  0.14295308  0.21034096  0.13704225     0.28500
H123        H  0.06301581  0.25381448  0.18802539     0.19100
H124        H  0.15552114  0.33221723  0.15092954     0.19100
C125        C  0.34047558  0.26731569  0.10047247    -0.06700
C126        C  0.36428319  0.24203961  0.11010749    -0.17900
C127        C  0.40004128  0.24524576  0.10350277     0.10500
C128        C  0.41337666  0.27505431  0.08500123    -0.06700
C129        C  0.38825906  0.30139076  0.07863432    -0.17900
C130        C  0.35282666  0.29748984  0.08505760     0.10500
S131        S  0.42512902  0.21056913  0.12332006    -0.32900
S132        S  0.32467851  0.33316847  0.07450781    -0.32900
H133        H  0.29692368  0.31299955  0.06373527     0.28500
H134        H  0.45776936  0.21593388  0.10825796     0.28500
H135        H  0.35485806  0.21971191  0.12405131     0.19100
H136        H  0.39524269  0.32600696  0.06810941     0.19100
C137        C  0.04715909  0.20022075  0.29513453    -0.06700
C138        C  0.07301347  0.17509599  0.28644381    -0.17900
C139        C  0.06595235  0.14351449  0.27037560     0.10500
C140        C  0.03198605  0.13480099  0.26154559    -0.06700
C141        C  0.00593508  0.15891231  0.26859481    -0.17900
C142        C  0.01234939  0.19006953  0.28645989     0.10500
S143        S  0.10170974  0.11409357  0.26376945    -0.32900
S144        S  0.47192961  0.20991249  0.30579076    -0.32900
H145        H  0.95157992  0.20076463  0.27803688     0.28500
H146        H  0.09144906  0.10600893  0.23004686     0.28500
H147        H  0.09908181  0.17730732  0.29501383     0.19100
H148        H  0.47767160  0.15167001  0.26467612     0.19100
C149        C  0.02278385  0.43201225  0.21365825    -0.06700
C150        C  0.99816667  0.41387149  0.19502700    -0.17900
C151        C  0.00102546  0.37782551  0.18888346     0.10500
C152        C  0.03117705  0.35854316  0.19955743    -0.06700
C153        C  0.05513094  0.37777558  0.21904811    -0.17900
C154        C  0.05180411  0.41330721  0.22541698     0.10500
S155        S  0.46278999  0.35927075  0.17295808    -0.32900
S156        S  0.08708687  0.43361845  0.24720771    -0.32900
H157        H  0.08744583  0.46231049  0.22504738     0.28500
H158        H  0.44877174  0.38861854  0.15688897     0.28500
H159        H  0.47456230  0.42855439  0.18846496     0.19100
H160        H  0.07838524  0.36561502  0.22802411     0.19100
C161        C  0.34553161  0.04284554  0.29531657    -0.06700
C162        C  0.36534558  0.01205894  0.29986309    -0.17900
C163        C  0.39979990  0.00846375  0.28831575     0.10500
C164        C  0.41563846  0.03536379  0.26990983    -0.06700
C165        C  0.39569268  0.06436112  0.26169829    -0.17900
C166        C  0.36108465  0.06823176  0.27320323     0.10500
S167        S  0.42218727  0.46886700  0.29895208    -0.32900
S168        S  0.33832159  0.10638177  0.25920866    -0.32900
H169        H  0.36261238  0.11756691  0.23414546     0.28500
H170        H  0.44158861  0.46804575  0.26760289     0.28500
H171        H  0.35434667  0.49011018  0.31377031     0.19100
H172        H  0.40770629  0.08454776  0.24653467     0.19100
C173        C  0.29553833  0.47365371  0.40078366    -0.06700
C174        C  0.26945263  0.47561691  0.37543890    -0.17900
C175        C  0.27412515  0.49320570  0.34354330     0.10500
C176        C  0.30170970  0.01735555  0.33951165    -0.06700
C177        C  0.32461891  0.51853271  0.36744565    -0.17900
C178        C  0.32595681  0.49318095  0.39239705     0.10500
S179        S  0.24500198  0.98357850  0.30956012    -0.32900
S180        S  0.37058849  0.48248402  0.40055348    -0.32900
H181        H  0.36862830  0.44967927  0.38538066     0.28500
H182        H  0.22406282  0.96000044  0.32759687     0.28500
H183        H  0.24689185  0.45999082  0.37844197     0.19100
H184        H  0.34728170  0.03554335  0.36467421     0.19100
C185        C  0.23357402  0.09468066  0.17283387    -0.06700
C186        C  0.20876382  0.11999663  0.18363708    -0.17900
C187        C  0.21520218  0.15499299  0.18235405     0.10500
C188        C  0.24560184  0.16684022  0.16669453    -0.06700
C189        C  0.27187994  0.14306170  0.15827274    -0.17900
C190        C  0.26725999  0.10749064  0.16403126     0.10500
S191        S  0.18417684  0.18342527  0.20297977    -0.32900
S192        S  0.30429674  0.07928144  0.15798457    -0.32900
H193        H  0.32937788  0.10509183  0.15513526     0.28500
H194        H  0.20926892  0.20581918  0.21540147     0.28500
H195        H  0.18492476  0.11329451  0.19670575     0.19100
H196        H  0.29592140  0.15237504  0.14716777     0.19100
C197        C  0.24799598  0.04761002  0.21246373    -0.06700
C198        C  0.23938869  0.06959678  0.24063581    -0.17900
C199        C  0.26009874  0.07388570  0.26904707     0.10500
C200        C  0.28344577  0.04670264  0.27850392    -0.06700
C201        C  0.28915539  0.02086760  0.25249171    -0.17900
C202        C  0.27435264  0.02241714  0.21899930     0.10500
S203        S  0.25794227  0.11784020  0.28547404    -0.32900
S204        S  0.28935682  0.48880284  0.18946751    -0.32900
H205        H  0.29264515  0.01036285  0.15977657     0.28500
H206        H  0.24834390  0.13402748  0.25428938     0.28500
H207        H  0.21749408  0.08687132  0.23905983     0.19100
H208        H  0.30721761  0.00008518  0.25760015     0.19100
C209        C  0.18675230  0.04917578  0.18947810    -0.06700
C210        C  0.16127022  0.06275278  0.16723492    -0.17900
C211        C  0.12584143  0.06045472  0.17496282     0.10500
C212        C  0.11478417  0.04158136  0.20442669    -0.06700
C213        C  0.13933598  0.02523491  0.22457189    -0.17900
C214        C  0.17440862  0.02713584  0.21697178     0.10500
S215        S  0.09684549  0.08359904  0.14694627    -0.32900
S216        S  0.19987831  0.99677897  0.24126378    -0.32900
H217        H  0.17498069  0.97065041  0.24316912     0.28500
H218        H  0.07562580  0.09734472  0.17371131     0.28500
H219        H  0.16929625  0.07723633  0.14451067     0.19100
H220        H  0.13091310  0.00966099  0.24642120     0.19100
C221        C  0.22262895  0.46329570  0.52346844    -0.06700
C222        C  0.23898309  0.43170160  0.51421957    -0.17900
C223        C  0.26279523  0.42741871  0.48776826     0.10500
C224        C  0.26556523  0.45224270  0.46099004    -0.06700
C225        C  0.24603663  0.48300522  0.46593809    -0.17900
C226        C  0.22524129  0.48914775  0.49658919     0.10500
S227        S  0.28657916  0.38710241  0.48900106    -0.32900
S228        S  0.20205205  0.02981322  0.49541629    -0.32900
H229        H  0.19130054  0.02897948  0.02982505     0.28500
H230        H  0.28662173  0.38415470  0.52552201     0.28500
H231        H  0.23301518  0.40772966  0.52654449     0.19100
H232        H  0.24740784  0.50269266  0.44612050     0.19100
C233        C  0.21090082  0.98793041  0.08844859    -0.06700
C234        C  0.23207886  0.01673958  0.08294563    -0.17900
C235        C  0.23686249  0.04138282  0.10978861     0.10500
C236        C  0.23096648  0.03169189  0.14575169    -0.06700
C237        C  0.21917863  0.99796626  0.15035337    -0.17900
C238        C  0.20194239  0.48115801  0.12407028     0.10500
S239        S  0.24391203  0.08466548  0.09448411    -0.32900
S240        S  0.16909065  0.45199812  0.14039388    -0.32900
H241        H  0.14644973  0.45515565  0.11267514     0.28500
H242        H  0.25526221  0.07665084  0.06037157     0.28500
H243        H  0.24162794  0.02204680  0.05710029     0.19100
H244        H  0.21680392  0.48741107  0.17571961     0.19100
C245        C  0.20571031  0.42748753  0.07600450    -0.06700
C246        C  0.18083554  0.40109438  0.07475374    -0.17900
C247        C  0.18907451  0.36713339  0.08353643     0.10500
C248        C  0.22121674  0.35932387  0.09846819    -0.06700
C249        C  0.24485153  0.38537268  0.10328540    -0.17900
C250        C  0.23884198  0.41841493  0.09078869     0.10500
S251        S  0.15747000  0.33475030  0.07479104    -0.32900
S252        S  0.27611162  0.44610299  0.09446112    -0.32900
H253        H  0.27499686  0.46160918  0.06176645     0.28500
H254        H  0.17882265  0.31788655  0.04988984     0.28500
H255        H  0.15507256  0.40592799  0.06580126     0.19100
H256        H  0.26946998  0.37927600  0.11495549     0.19100
C257        C  0.36771390  0.23537433  0.40816257    -0.06700
C258        C  0.36967621  0.22071350  0.44141580    -0.17900
C259        C  0.39855414  0.20141432  0.45198050     0.10500
C260        C  0.42943717  0.20010648  0.43084487    -0.06700
C261        C  0.42518402  0.21231014  0.39619472    -0.17900
C262        C  0.39671007  0.23193828  0.38585602     0.10500
S263        S  0.38879636  0.17069821  0.48553516    -0.32900
S264        S  0.39912859  0.25160605  0.34351230    -0.32900
H265        H  0.38314922  0.28234057  0.35498070     0.28500
H266        H  0.36644765  0.19245303  0.50515101     0.28500
H267        H  0.34658805  0.22038979  0.45777903     0.19100
H268        H  0.44451939  0.20741268  0.37621931     0.19100
C269        C  0.28922740  0.14207337  0.36871449    -0.06700
C270        C  0.26344729  0.11758019  0.36967878    -0.17900
C271        C  0.26875410  0.08560542  0.35330140     0.10500
C272        C  0.30101977  0.07856359  0.33485217    -0.06700
C273        C  0.32857050  0.10064839  0.34198592    -0.17900
C274        C  0.32276826  0.13231364  0.35783982     0.10500
S275        S  0.23082635  0.05924232  0.35014362    -0.32900
S276        S  0.35914508  0.15963483  0.36313450    -0.32900
H277        H  0.34747213  0.16957843  0.39654629     0.28500
H278        H  0.21428462  0.07146298  0.38080203     0.28500
H279        H  0.23782947  0.12508620  0.37898901     0.19100
H280        H  0.35487523  0.09419703  0.33454411     0.19100
C281        C  0.27003141  0.34569673  0.38225767    -0.06700
C282        C  0.24476875  0.36123928  0.40333525    -0.17900
C283        C  0.24817540  0.39481510  0.41532465     0.10500
C284        C  0.28101129  0.41194806  0.41090018    -0.06700
C285        C  0.30222201  0.39902329  0.38341024    -0.17900
C286        C  0.29769799  0.36586554  0.36973279     0.10500
S287        S  0.20758607  0.41246951  0.43244706    -0.32900
S288        S  0.33029824  0.34961635  0.33980282    -0.32900
H289        H  0.33676287  0.32032962  0.36005161     0.28500
H290        H  0.21085692  0.44568615  0.41909105     0.28500
H291        H  0.22159663  0.34707528  0.41007100     0.19100
H292        H  0.32446391  0.41342396  0.37477484     0.19100
C293        C  0.09646551  0.23317341  0.32977627    -0.06700
C294        C  0.12197143  0.23411842  0.30233656    -0.17900
C295        C  0.15770474  0.23811179  0.30809578     0.10500
C296        C  0.17049965  0.23762872  0.34225170    -0.06700
C297        C  0.14613042  0.23571804  0.36950033    -0.17900
C298        C  0.11030547  0.23601834  0.36449338     0.10500
S299        S  0.18494116  0.24655210  0.27087323    -0.32900
S300        S  0.08616774  0.24328855  0.40483871    -0.32900
H301        H  0.11053101  0.26428533  0.42116834     0.28500
H302        H  0.19910822  0.27632955  0.28560734     0.28500
H303        H  0.11356296  0.23378831  0.27559074     0.19100
H304        H  0.15517531  0.23562130  0.39599614     0.19100
C305        C  0.47841695  0.38398277  0.03239083    -0.06700
C306        C  0.45826348  0.36200666  0.01221868    -0.17900
C307        C  0.44672226  0.33007622  0.02493794     0.10500
C308        C  0.45689770  0.31884987  0.05904394    -0.06700
C309        C  0.47257704  0.34413112  0.07996743    -0.17900
C310        C  0.48529000  0.37474649  0.06681705     0.10500
S311        S  0.42050678  0.30603213  0.99480692    -0.32900
S312        S  0.51169171  0.40005686  0.09531930    -0.32900
H313        H  0.53501004  0.41041296  0.06890863     0.28500
H314        H  0.40830685  0.28007687  0.01663499     0.28500
H315        H  0.45128127  0.37101918  0.48437495     0.19100
H316        H  0.47670312  0.34000283  0.10703142     0.19100
C317        C  0.32678164  0.44612193  0.45151790    -0.06700
C318        C  0.33112887  0.47712358  0.47138763    -0.17900
C319        C  0.36196163  0.48623598  0.48661092     0.10500
C320        C  0.39054747  0.46447553  0.48178056    -0.06700
C321        C  0.38621496  0.43185167  0.46693647    -0.17900
C322        C  0.35509906  0.42170872  0.45213842     0.10500
S323        S  0.36440673  0.02466589  0.51116019    -0.32900
S324        S  0.35911923  0.37997351  0.43130605    -0.32900
H325        H  0.32629781  0.36709082  0.43799056     0.28500
H326        H  0.39811869  0.03373255  0.50130279     0.28500
H327        H  0.31109019  0.49671450  0.47230919     0.19100
H328        H  0.40849404  0.41472416  0.46476788     0.19100
C329        C  0.09098404  0.47751345  0.02250581    -0.06700
C330        C  0.10348913  0.49946974  0.04792752    -0.17900
C331        C  0.13760673  0.49749098  0.05946321     0.10500
C332        C  0.16074476  0.47053154  0.04688314    -0.06700
C333        C  0.14783415  0.44970887  0.01972834    -0.17900
C334        C  0.11372327  0.45230583  0.00812547     0.10500
S335        S  0.14935335  0.03162428  0.08797881    -0.32900
S336        S  0.10129343  0.41972542  0.47567000    -0.32900
H337        H  0.07020703  0.41219326  0.49352149     0.28500
H338        H  0.12844809  0.05724256  0.07295566     0.28500
H339        H  0.08780192  0.01965319  0.05616134     0.19100
H340        H  0.16474670  0.42899596  0.50817626     0.19100
C341        C  0.48439779  0.07906017  0.46344462    -0.06700
C342        C  0.50983207  0.10301688  0.47137555    -0.17900
C343        C  0.50527079  0.13845807  0.46483896     0.10500
C344        C  0.47320751  0.15129169  0.45150726    -0.06700
C345        C  0.44799780  0.12657264  0.44316438    -0.17900
C346        C  0.45346454  0.09110365  0.44840538     0.10500
S347        S  0.03952690  0.16581844  0.97533632    -0.32900
S348        S  0.41945575  0.06266968  0.43559756    -0.32900
H349        H  0.44110728  0.03485521  0.42603532     0.28500
H350        H  0.06239472  0.14252428  0.48890920     0.28500
H351        H  0.03159070  0.09330527  0.98593203     0.19100
H352        H  0.42429460  0.13441910  0.43091436     0.19100
O353        O  0.03233809  0.49177199  0.53287634    -0.72400
O354        O  0.43613483  0.48706340  0.51570312    -0.72600
O355        O  0.48362649  0.44521106  0.53948157    -0.72500
O356        O  0.48365839  0.03586851  0.50723814    -0.72500
O357        O  0.49601296  0.01884106  0.95655325    -0.72400
O358        O  0.49336272  0.42471246  0.98791429    -0.72400
O359        O  0.44858651  0.46881736  0.96272106    -0.72400
O360        O  0.04369357  0.47290515  0.98307192    -0.72600
V361        V  0.48443911  0.49054864  0.52240638     1.35200
V362        V  0.49578884  0.47137469  0.97283020     1.35200
C363        C  0.05453674  0.48059455  0.51077683     0.76900
C364        C  0.42644742  0.47355178  0.98683087     0.76900
C365        C  0.48565254  0.42008423  0.51861203     0.76800
C366        C  0.48715877  0.04307178  0.97725094     0.76700
O367        O  0.25577856  0.28786003  0.90387632    -0.68000
O368        O  0.26324814  0.19041231  0.89876953    -0.72600
O369        O  0.30466735  0.24100254  0.91705944    -0.72500
O370        O  0.21261735  0.23719821  0.88579490    -0.72500
O371        O  0.22998225  0.24168981  0.83217841    -0.72400
O372        O  0.32359335  0.24388349  0.86377748    -0.72400
O373        O  0.28103866  0.19506164  0.84498180    -0.72400
O374        O  0.27498018  0.29184433  0.85057470    -0.72600
V375        V  0.25913307  0.23932144  0.90021765     1.35200
V376        V  0.27675536  0.24316996  0.84878949     1.35200
C377        C  0.26613690  0.30634911  0.87880364     0.76900
C378        C  0.27594873  0.17664152  0.87147323     0.76900
C379        C  0.33004768  0.24113745  0.89591046     0.76800
C380        C  0.20502011  0.23874793  0.85392529     0.76700
C381        C  0.19886329  0.46354724  0.55824771    -0.03100
C382        C  0.22268979  0.05514349  0.68077278    -0.03100
C383        C  0.29232239  0.44393219  0.93048536    -0.03100
C384        C  0.30429841  0.04436036  0.81252141    -0.03100
O385        O  0.00330347  0.49019706  0.70127042    -0.72400
O386        O  0.00876537  0.08807191  0.72478033    -0.72600
O387        O  0.05094546  0.04019440  0.69724429    -0.72500
O388        O  0.45770810  0.04017440  0.72913298    -0.72500
O389        O  0.97416487  0.02565357  0.78118608    -0.72400
O390        O  0.06794381  0.02910241  0.74950552    -0.72400
O391        O  0.02419011  0.07449310  0.77704375    -0.72400
O392        O  0.02158754  0.47909536  0.75305406    -0.72600
V393        V  0.00513577  0.03947050  0.71459421     1.35200
V394        V  0.02116001  0.02731535  0.76460451     1.35200
C395        C  0.01422527  0.46817775  0.72312759     0.76900
C396        C  0.01993773  0.09739903  0.75426736     0.76900
C397        C  0.07529181  0.03628093  0.71807636     0.76800
C398        C  0.44995369  0.03342269  0.76042162     0.76700
O399        O  0.25168364  0.22755681  0.67445479    -0.72400
O400        O  0.24122026  0.31937738  0.64108615    -0.72600
O401        O  0.20003005  0.27532686  0.67294914    -0.72500
O402        O  0.29393640  0.27326547  0.64273514    -0.72500
O403        O  0.27898113  0.25375222  0.59216966    -0.72400
O404        O  0.18426912  0.25561175  0.62275371    -0.72400
O405        O  0.22559314  0.29925603  0.59101631    -0.72400
O406        O  0.23633799  0.20829378  0.62391873    -0.72600
V407        V  0.24662578  0.27327058  0.65685298     1.35200
V408        V  0.23185263  0.25433948  0.60847868     1.35200
C409        C  0.24469544  0.20232706  0.65491455     0.76900
C410        C  0.22943087  0.32463320  0.61101395     0.76900
C411        C  0.17612611  0.26819484  0.65230312     0.76800
C412        C  0.30242754  0.26423781  0.61211737     0.76700
C413        C  0.05315279  0.23154745  0.82051012    -0.03100
C414        C  0.46620488  0.19028868  0.94551112    -0.03100
C415        C  0.03687055  0.31697660  0.69600760    -0.03100
C416        C  0.45095829  0.28193329  0.57171179    -0.03100
C417        C  0.47472728  0.27853285  0.60530884    -0.06700
C418        C  0.46129765  0.27781517  0.64022763    -0.17900
C419        C  0.48300303  0.28070448  0.66930392     0.10500
C420        C  0.01401867  0.29949276  0.66622694    -0.06700
C421        C  0.02620885  0.30155988  0.63077053    -0.17900
C422        C  0.51057204  0.28499880  0.60356874     0.10500
S423        S  0.47362308  0.25049331  0.70340376    -0.32900
S424        S  0.54032615  0.25678529  0.58052621    -0.32900
H425        H  0.51687879  0.22961756  0.57732561     0.28500
H426        H  0.50829357  0.24184724  0.70935111     0.28500
H427        H  0.43445891  0.27363812  0.64619383     0.19100
H428        H  0.05047148  0.31345491  0.62406791     0.19100
C429        C  0.47245982  0.21030632  0.48055629    -0.06700
C430        C  0.49255921  0.24027085  0.48450689    -0.17900
C431        C  0.48918810  0.26261033  0.51400697     0.10500
C432        C  0.46309873  0.25618411  0.54084357    -0.06700
C433        C  0.44579911  0.22479225  0.53643340    -0.17900
C434        C  0.45578411  0.20006324  0.51191241     0.10500
S435        S  0.51816219  0.29914925  0.51422353    -0.32900
S436        S  0.45597995  0.15596089  0.52760865    -0.32900
H437        H  0.43751613  0.16153609  0.55902744     0.28500
H438        H  0.52907439  0.29777004  0.47910482     0.28500
H439        H  0.51056281  0.24647719  0.96484141     0.19100
H440        H  0.42451884  0.21739432  0.55225701     0.19100
C441        C  0.03139523  0.22464710  0.85439661    -0.06700
C442        C  0.03360649  0.19065088  0.86682359    -0.17900
C443        C  0.01118852  0.17754510  0.89189895     0.10500
C444        C  0.99242957  0.20060660  0.91501191    -0.06700
C445        C  0.99303834  0.23596867  0.90489696    -0.17900
C446        C  0.01072183  0.24796123  0.87483138     0.10500
S447        S  0.00431411  0.13170687  0.88624747    -0.32900
S448        S  0.00987673  0.29379180  0.86862415    -0.32900
H449        H  0.04596621  0.29580522  0.86574226     0.28500
H450        H  0.01499998  0.12874846  0.85107337     0.28500
H451        H  0.05151565  0.17268240  0.85440423     0.19100
H452        H  0.47749089  0.25532923  0.91863077     0.19100
C453        C  0.04434158  0.26589942  0.79952784    -0.06700
C454        C  0.01124472  0.27490024  0.78674836    -0.17900
C455        C  0.00727352  0.29582489  0.75674991     0.10500
C456        C  0.03650217  0.30205931  0.73477114    -0.06700
C457        C  0.06810981  0.30117294  0.75346338    -0.17900
C458        C  0.07030283  0.28827299  0.78724963     0.10500
S459        S  0.46668946  0.31771423  0.75208744    -0.32900
S460        S  0.09972754  0.30904138  0.81668963    -0.32900
H461        H  0.11909054  0.32684696  0.79133389     0.28500
H462        H  0.48131795  0.35048477  0.75532736     0.28500
H463        H  0.98862632  0.27005881  0.80239809     0.19100
H464        H  0.09133556  0.31251285  0.74294310     0.19100
C465        C  0.07444449  0.30699060  0.68208072    -0.06700
C466        C  0.08172333  0.27102066  0.68042669    -0.17900
C467        C  0.11287401  0.25741113  0.66751121     0.10500
C468        C  0.14043452  0.27972062  0.66087565    -0.06700
C469        C  0.13403182  0.31538261  0.66202410    -0.17900
C470        C  0.10072791  0.32913863  0.66879232     0.10500
S471        S  0.11438674  0.21174478  0.65940093    -0.32900
S472        S  0.09200850  0.37212260  0.65292704    -0.32900
H473        H  0.12589486  0.38033664  0.64234316     0.28500
H474        H  0.14003859  0.21207514  0.63317753     0.28500
H475        H  0.06185071  0.25300138  0.68775645     0.19100
H476        H  0.15491977  0.33244526  0.65494786     0.19100
C477        C  0.33884085  0.26739099  0.60002264    -0.06700
C478        C  0.36301179  0.24239287  0.60942547    -0.17900
C479        C  0.39856298  0.24564548  0.60177225     0.10500
C480        C  0.41146124  0.27570206  0.58336638    -0.06700
C481        C  0.38598127  0.30157839  0.57670300    -0.17900
C482        C  0.35063474  0.29729146  0.58357905     0.10500
S483        S  0.42416918  0.21001656  0.61905302    -0.32900
S484        S  0.32176178  0.33197458  0.57191301    -0.32900
H485        H  0.29484214  0.31072775  0.56107716     0.28500
H486        H  0.45630707  0.21624819  0.60328850     0.28500
H487        H  0.35400897  0.22001838  0.62357069     0.19100
H488        H  0.39260743  0.32592309  0.56528582     0.19100
C489        C  0.04443318  0.19928298  0.79560105    -0.06700
C490        C  0.07035635  0.17411496  0.78725067    -0.17900
C491        C  0.06332290  0.14233263  0.77161982     0.10500
C492        C  0.02941669  0.13370460  0.76252726    -0.06700
C493        C  0.00343202  0.15804477  0.76872970    -0.17900
C494        C  0.00970702  0.18923194  0.78650486     0.10500
S495        S  0.09896695  0.11261797  0.76588028    -0.32900
S496        S  0.47115739  0.20825959  0.80517434    -0.32900
H497        H  0.94924356  0.20035298  0.77705349     0.28500
H498        H  0.08905600  0.10422036  0.73210431     0.28500
H499        H  0.09636727  0.17637948  0.79597742     0.19100
H500        H  0.47699212  0.15075249  0.76326926     0.19100
C501        C  0.02013825  0.43067117  0.71434713    -0.06700
C502        C  0.99625054  0.41246080  0.69482033    -0.17900
C503        C  0.99945886  0.37644164  0.68872812     0.10500
C504        C  0.02922539  0.35727426  0.70052278    -0.06700
C505        C  0.05230998  0.37652355  0.72102569    -0.17900
C506        C  0.04870450  0.41203227  0.72724315     0.10500
S507        S  0.46073632  0.35785336  0.67272238    -0.32900
S508        S  0.08320143  0.43237321  0.75026557    -0.32900
H509        H  0.08454728  0.46091778  0.72793592     0.28500
H510        H  0.44806843  0.38686348  0.65500244     0.28500
H511        H  0.47352247  0.42712604  0.68682829     0.19100
H512        H  0.07522754  0.36443731  0.73087534     0.19100
C513        C  0.34259244  0.04109075  0.79630781    -0.06700
C514        C  0.36303913  0.01090703  0.80190029    -0.17900
C515        C  0.39788157  0.00811027  0.79164162     0.10500
C516        C  0.41321499  0.03460120  0.77225811    -0.06700
C517        C  0.39257463  0.06258717  0.76238568    -0.17900
C518        C  0.35781448  0.06615384  0.77357212     0.10500
S519        S  0.42080326  0.46766439  0.79798029    -0.32900
S520        S  0.33422120  0.10320248  0.75802656    -0.32900
H521        H  0.36119985  0.11892484  0.73918627     0.28500
H522        H  0.44064621  0.46683443  0.76691482     0.28500
H523        H  0.35259928  0.48786068  0.81166715     0.19100
H524        H  0.40415809  0.08217383  0.74611819     0.19100
C525        C  0.29553908  0.47153422  0.90034479    -0.06700
C526        C  0.26932734  0.47306633  0.87505609    -0.17900
C527        C  0.27360056  0.49043802  0.84301383     0.10500
C528        C  0.29911342  0.01539184  0.84058101    -0.06700
C529        C  0.32432735  0.51598537  0.86620931    -0.17900
C530        C  0.32588110  0.49095904  0.89151899     0.10500
S531        S  0.24237643  0.98144053  0.81056136    -0.32900
S532        S  0.37052199  0.48067044  0.90007491    -0.32900
H533        H  0.36869538  0.44745284  0.88582398     0.28500
H534        H  0.23025092  0.95006735  0.82395811     0.28500
H535        H  0.24703665  0.45717420  0.87819907     0.19100
H536        H  0.34424506  0.03402557  0.86624294     0.19100
C537        C  0.23031186  0.09459508  0.67450259    -0.06700
C538        C  0.20547093  0.12002838  0.68484779    -0.17900
C539        C  0.21201890  0.15508283  0.68333436     0.10500
C540        C  0.24278656  0.16676401  0.66806211    -0.06700
C541        C  0.26900541  0.14277187  0.66016429    -0.17900
C542        C  0.26409843  0.10724355  0.66588384     0.10500
S543        S  0.18040086  0.18358173  0.70304808    -0.32900
S544        S  0.30104481  0.07887454  0.66006001    -0.32900
H545        H  0.32635587  0.10455404  0.65855337     0.28500
H546        H  0.20396283  0.20893200  0.71226452     0.28500
H547        H  0.18143028  0.11335733  0.69754323     0.19100
H548        H  0.29324741  0.15188214  0.64933399     0.19100
C549        C  0.24479710  0.04719821  0.71376771    -0.06700
C550        C  0.23641174  0.06902652  0.74210317    -0.17900
C551        C  0.25687660  0.07258041  0.77080697     0.10500
C552        C  0.28020011  0.04517928  0.77988927    -0.06700
C553        C  0.28580178  0.01968748  0.75350435    -0.17900
C554        C  0.27091062  0.02169810  0.72004694     0.10500
S555        S  0.25467665  0.11627748  0.78788561    -0.32900
S556        S  0.28729488  0.48986208  0.68773549    -0.32900
H557        H  0.28888292  0.00991073  0.66074825     0.28500
H558        H  0.24704154  0.13302110  0.75641620     0.28500
H559        H  0.21480679  0.08670011  0.74049357     0.19100
H560        H  0.30385218  0.99881106  0.75831643     0.19100
C561        C  0.18342821  0.04890243  0.69143094    -0.06700
C562        C  0.15769370  0.06196046  0.66921926    -0.17900
C563        C  0.12234468  0.05887437  0.67685987     0.10500
C564        C  0.11158540  0.04036063  0.70667434    -0.06700
C565        C  0.13639472  0.02485965  0.72713753    -0.17900
C566        C  0.17141738  0.02681897  0.71911792     0.10500
S567        S  0.09291045  0.08057470  0.64821123    -0.32900
S568        S  0.19724448  0.99601307  0.74254475    -0.32900
H569        H  0.17150790  0.97124012  0.74835284     0.28500
H570        H  0.07298180  0.09628475  0.67490922     0.28500
H571        H  0.16538117  0.07636026  0.64637435     0.19100
H572        H  0.12817126  0.00962907  0.74930084     0.19100
C573        C  0.22230959  0.46284745  0.02289111    -0.06700
C574        C  0.23736180  0.43073095  0.01316786    -0.17900
C575        C  0.26190533  0.42622227  0.98745707     0.10500
C576        C  0.26561513  0.45111010  0.96086409    -0.06700
C577        C  0.24679052  0.48235286  0.96580031    -0.17900
C578        C  0.22596023  0.48889509  0.99637329     0.10500
S579        S  0.28524637  0.38566217  0.98920660    -0.32900
S580        S  0.20509838  0.02915832  0.99642113    -0.32900
H581        H  0.19077547  0.03115776  0.52972466     0.28500
H582        H  0.28185738  0.38059706  0.02538942     0.28500
H583        H  0.23024088  0.40682518  0.02502034     0.19100
H584        H  0.24892459  0.50215289  0.94615979     0.19100
C585        C  0.20845140  0.98919474  0.58838938    -0.06700
C586        C  0.22970483  0.01808779  0.58377985    -0.17900
C587        C  0.23406760  0.04209421  0.61114250     0.10500
C588        C  0.22736595  0.03207210  0.64689538    -0.06700
C589        C  0.21496438  0.99847215  0.65073667    -0.17900
C590        C  0.19994076  0.48115902  0.62409783     0.10500
S591        S  0.24218709  0.08475594  0.59531923    -0.32900
S592        S  0.16655245  0.45227721  0.63969216    -0.32900
H593        H  0.14435143  0.45611374  0.61169013     0.28500
H594        H  0.20981925  0.09747783  0.60698709     0.28500
H595        H  0.23960428  0.02431682  0.55817741     0.19100
H596        H  0.21341210  0.48767255  0.67621231     0.19100
C597        C  0.20472708  0.42734423  0.57609304    -0.06700
C598        C  0.17964724  0.40116921  0.57540184    -0.17900
C599        C  0.18758350  0.36736965  0.58508621     0.10500
C600        C  0.21992078  0.35950160  0.59963840    -0.06700
C601        C  0.24390258  0.38542209  0.60364627    -0.17900
C602        C  0.23777804  0.41847778  0.59093933     0.10500
S603        S  0.15528137  0.33524541  0.57810886    -0.32900
S604        S  0.27483427  0.44677665  0.58981822    -0.32900
H605        H  0.29385877  0.43027568  0.61589662     0.28500
H606        H  0.17566091  0.31747215  0.55304727     0.28500
H607        H  0.15387866  0.40613011  0.56647059     0.19100
H608        H  0.26876708  0.37892650  0.61447627     0.19100
C609        C  0.36554034  0.23334080  0.90879494    -0.06700
C610        C  0.36819940  0.22040685  0.94270211    -0.17900
C611        C  0.39758387  0.20228611  0.95395531     0.10500
C612        C  0.42818953  0.20006524  0.93242351    -0.06700
C613        C  0.42338855  0.21072670  0.89730772    -0.17900
C614        C  0.39437186  0.22920388  0.88629736     0.10500
S615        S  0.38890773  0.17425772  0.99004376    -0.32900
S616        S  0.39576372  0.24588329  0.84260955    -0.32900
H617        H  0.38048121  0.27752277  0.85228627     0.28500
H618        H  0.36718033  0.19747268  0.00861613     0.28500
H619        H  0.34539145  0.22076314  0.95948043     0.19100
H620        H  0.44257886  0.20522628  0.87730884     0.19100
C621        C  0.28617940  0.14031345  0.86975499    -0.06700
C622        C  0.26087564  0.11535597  0.87168715    -0.17900
C623        C  0.26628406  0.08336834  0.85530414     0.10500
C624        C  0.29824879  0.07666306  0.83616612    -0.06700
C625        C  0.32553318  0.09934059  0.84222118    -0.17900
C626        C  0.31955752  0.13105179  0.85787269     0.10500
S627        S  0.22865563  0.05649893  0.85301117    -0.32900
S628        S  0.35552060  0.15918417  0.86136824    -0.32900
H629        H  0.34577692  0.16806786  0.89567459     0.28500
H630        H  0.21290128  0.06825738  0.88425547     0.28500
H631        H  0.23538776  0.12248165  0.88165916     0.19100
H632        H  0.35172847  0.09338710  0.83402339     0.19100
C633        C  0.26906692  0.34376225  0.88369627    -0.06700
C634        C  0.24372663  0.36007761  0.90401722    -0.17900
C635        C  0.24754714  0.39378454  0.91543054     0.10500
C636        C  0.28082262  0.41017370  0.91131721    -0.06700
C637        C  0.30224634  0.39645830  0.88441444    -0.17900
C638        C  0.29738188  0.36313379  0.87134927     0.10500
S639        S  0.20696258  0.41240425  0.93159439    -0.32900
S640        S  0.33039724  0.34554619  0.84266283    -0.32900
H641        H  0.33537065  0.31638194  0.86352854     0.28500
H642        H  0.21124677  0.44592221  0.91942357     0.28500
H643        H  0.22017552  0.34644216  0.91053927     0.19100
H644        H  0.32489657  0.41032239  0.87592974     0.19100
C645        C  0.09341033  0.23198330  0.83102403    -0.06700
C646        C  0.11908495  0.23325250  0.80377252    -0.17900
C647        C  0.15476758  0.23731070  0.80974627     0.10500
C648        C  0.16740932  0.23687652  0.84397059    -0.06700
C649        C  0.14291787  0.23471063  0.87107985    -0.17900
C650        C  0.10708175  0.23443226  0.86589187     0.10500
S651        S  0.18221990  0.24545954  0.77260038    -0.32900
S652        S  0.08269503  0.23975400  0.90638533    -0.32900
H653        H  0.10649455  0.26062066  0.92367984     0.28500
H654        H  0.19647000  0.27522337  0.78728509     0.28500
H655        H  0.11085734  0.23297243  0.77696662     0.19100
H656        H  0.15191467  0.23445532  0.89759068     0.19100
C657        C  0.47722622  0.38518097  0.53126633    -0.06700
C658        C  0.45767142  0.36313319  0.51051414    -0.17900
C659        C  0.44568051  0.33119593  0.52294303     0.10500
C660        C  0.45468540  0.31999493  0.55737828    -0.06700
C661        C  0.46940805  0.34541979  0.57881727    -0.17900
C662        C  0.48286513  0.37592665  0.56598423     0.10500
S663        S  0.42049679  0.30702034  0.49209724    -0.32900
S664        S  0.50878769  0.40088882  0.59523885    -0.32900
H665        H  0.53301792  0.41081510  0.56948836     0.28500
H666        H  0.40630401  0.28242088  0.51434455     0.28500
H667        H  0.45102045  0.36997692  0.98634326     0.19100
H668        H  0.47239754  0.34122268  0.60604240     0.19100
C669        C  0.32691260  0.44434635  0.95147495    -0.06700
C670        C  0.33153658  0.47552672  0.97094806    -0.17900
C671        C  0.36247260  0.48463000  0.98597701     0.10500
C672        C  0.39096356  0.46272077  0.98126469    -0.06700
C673        C  0.38644677  0.43001326  0.96671024    -0.17900
C674        C  0.35513224  0.41977256  0.95234716     0.10500
S675        S  0.36320844  0.02560588  0.00742799    -0.32900
S676        S  0.35875115  0.37739610  0.93279212    -0.32900
H677        H  0.32566819  0.36513657  0.93923183     0.28500
H678        H  0.39853240  0.03237779  0.00407492     0.28500
H679        H  0.31166714  0.49527287  0.97168037     0.19100
H680        H  0.40863697  0.41275653  0.96470554     0.19100
C681        C  0.09149666  0.47724976  0.52029323    -0.06700
C682        C  0.10373310  0.49984541  0.54524579    -0.17900
C683        C  0.13748523  0.49780580  0.55759197     0.10500
C684        C  0.16059993  0.47042149  0.54602547    -0.06700
C685        C  0.14816321  0.44913649  0.51901824    -0.17900
C686        C  0.11428124  0.45164236  0.50678085     0.10500
S687        S  0.14739334  0.03330384  0.58680043    -0.32900
S688        S  0.10045314  0.42095220  0.97655409    -0.32900
H689        H  0.06958696  0.41301438  0.99460939     0.28500
H690        H  0.12561723  0.05866397  0.57258544     0.28500
H691        H  0.08640129  0.02103061  0.55430883     0.19100
H692        H  0.16424790  0.42982868  0.00816539     0.19100
C693        C  0.48255667  0.07917289  0.96533112    -0.06700
C694        C  0.50851050  0.10283037  0.97227104    -0.17900
C695        C  0.50422763  0.13818596  0.96535660     0.10500
C696        C  0.47192887  0.15116222  0.95263725    -0.06700
C697        C  0.44613428  0.12672038  0.94538545    -0.17900
C698        C  0.45139824  0.09129447  0.95084890     0.10500
S699        S  0.04001616  0.16738879  0.47487203    -0.32900
S700        S  0.41706574  0.06298777  0.93865403    -0.32900
H701        H  0.43845670  0.03496540  0.92910082     0.28500
H702        H  0.06457872  0.14005936  0.98109711     0.28500
H703        H  0.03209861  0.09452444  0.48436719     0.19100
H704        H  0.42206568  0.13472916  0.93395505     0.19100
O705        O  0.03320896  0.99181635  0.03320900    -0.72400
O706        O  0.43625912  0.98418137  0.01666038    -0.72600
O707        O  0.48507921  0.94376317  0.04039472    -0.72500
O708        O  0.48299256  0.53560597  0.00777058    -0.72500
O709        O  0.49631343  0.51936889  0.45496320    -0.72400
O710        O  0.49331662  0.92487753  0.48670019    -0.72400
O711        O  0.44865836  0.96949459  0.46239700    -0.72400
O712        O  0.04380330  0.97254720  0.48037671    -0.72600
V713        V  0.48441114  0.98919608  0.02365506     1.35200
V714        V  0.49600931  0.97173075  0.47181059     1.35200
C715        C  0.05558362  0.98074735  0.01121843     0.76900
C716        C  0.42691872  0.97380055  0.48694747     0.76900
C717        C  0.48769260  0.91887615  0.01929152     0.76800
C718        C  0.48844345  0.54399352  0.47556945     0.76700
O719        O  0.25775492  0.79035355  0.40160397    -0.68000
O720        O  0.26672007  0.69309233  0.39737551    -0.72600
O721        O  0.30745920  0.74452251  0.41496253    -0.72500
O722        O  0.21553352  0.73885561  0.38411604    -0.72500
O723        O  0.23258459  0.74366984  0.33042583    -0.72400
O724        O  0.32625697  0.74655642  0.36157914    -0.72400
O725        O  0.28383626  0.69734951  0.34333116    -0.72400
O726        O  0.27727481  0.79432031  0.34842410    -0.72600
V727        V  0.26195792  0.74190962  0.39834885     1.35200
V728        V  0.27937346  0.74554965  0.34683538     1.35200
C729        C  0.26795085  0.80887683  0.37651213     0.76900
C730        C  0.27893012  0.67909864  0.37000340     0.76900
C731        C  0.33276495  0.74428328  0.39372823     0.76800
C732        C  0.20780378  0.74027068  0.35228916     0.76700
C733        C  0.20034381  0.96290354  0.05848235    -0.03100
C734        C  0.22639983  0.55482368  0.17950107    -0.03100
C735        C  0.29285542  0.94571431  0.43042865    -0.03100
C736        C  0.30697159  0.54629225  0.31182652    -0.03100
O737        O  0.00631850  0.99181345  0.20117498    -0.72400
O738        O  0.01279309  0.58886251  0.22284797    -0.72600
O739        O  0.05449100  0.54038022  0.19533385    -0.72500
O740        O  0.46033512  0.54217535  0.22862200    -0.72500
O741        O  0.97786641  0.52634453  0.27950279    -0.72400
O742        O  0.07154194  0.53007936  0.24775669    -0.72400
O743        O  0.02758561  0.57534051  0.27531797    -0.72400
O744        O  0.02548765  0.98031553  0.25251827    -0.72600
V745        V  0.00867626  0.54022963  0.21287336     1.35200
V746        V  0.02480234  0.52812431  0.26284962     1.35200
C747        C  0.01780827  0.96960561  0.22257648     0.76900
C748        C  0.02353603  0.59824641  0.25249488     0.76900
C749        C  0.07885513  0.53678513  0.21622623     0.76800
C750        C  0.45264125  0.53462630  0.25974479     0.76700
O751        O  0.25439421  0.72710367  0.17396293    -0.72400
O752        O  0.24415729  0.81858712  0.13987826    -0.72600
O753        O  0.20303564  0.77521393  0.17275430    -0.72500
O754        O  0.29644380  0.77215148  0.14136342    -0.72500
O755        O  0.28063638  0.75376739  0.09064143    -0.72400
O756        O  0.18656776  0.75382504  0.12350335    -0.72400
O757        O  0.22631080  0.79821566  0.09069770    -0.72400
O758        O  0.23989361  0.70750438  0.12328318    -0.72600
V759        V  0.24938028  0.77265098  0.15603900     1.35200
V760        V  0.23388059  0.75343404  0.10803003     1.35200
C761        C  0.24837659  0.70172778  0.15427816     0.76900
C762        C  0.23123789  0.82370819  0.11026994     0.76900
C763        C  0.17883288  0.76730551  0.15278849     0.76800
C764        C  0.30441985  0.76370075  0.11047562     0.76700
C765        C  0.05599128  0.73214031  0.31994559    -0.03100
C766        C  0.46742171  0.69119643  0.44346313    -0.03100
C767        C  0.03972969  0.81778946  0.19579539    -0.03100
C768        C  0.45315384  0.78045470  0.07165209    -0.03100
C769        C  0.47657855  0.77684803  0.10542484    -0.06700
C770        C  0.46279726  0.77869777  0.14018218    -0.17900
C771        C  0.48436209  0.78223888  0.16932441     0.10500
C772        C  0.01667394  0.79954206  0.16645022    -0.06700
C773        C  0.02951490  0.79852198  0.13109437    -0.17900
C774        C  0.51273171  0.78132290  0.10368490     0.10500
S775        S  0.47473452  0.75234828  0.20362739    -0.32900
S776        S  0.54101593  0.75225850  0.07985240    -0.32900
H777        H  0.51678901  0.72566497  0.07775053     0.28500
H778        H  0.50936127  0.74336714  0.20940674     0.28500
H779        H  0.43571391  0.77560058  0.14594606     0.19100
H780        H  0.05457674  0.80834255  0.12386257     0.19100
C781        C  0.47290438  0.70897871  0.98012496    -0.06700
C782        C  0.49314217  0.73889921  0.98379582    -0.17900
C783        C  0.49076286  0.76080552  0.01369131     0.10500
C784        C  0.46490402  0.75456029  0.04077711    -0.06700
C785        C  0.44750043  0.72317458  0.03666051    -0.17900
C786        C  0.45682731  0.69860421  0.01183076     0.10500
S787        S  0.52043436  0.79677526  0.01400752    -0.32900
S788        S  0.46379780  0.65693613  0.03192428    -0.32900
H789        H  0.44329872  0.63638069  0.01105155     0.28500
H790        H  0.54339246  0.78513567  0.98756189     0.28500
H791        H  0.51157268  0.74676203  0.46505570     0.19100
H792        H  0.42764215  0.71483763  0.05383298     0.19100
C793        C  0.03428167  0.72525038  0.35395171    -0.06700
C794        C  0.03595330  0.69115123  0.36614976    -0.17900
C795        C  0.01367112  0.67831225  0.39155131     0.10500
C796        C  0.99521245  0.70150277  0.41480708    -0.06700
C797        C  0.99639512  0.73689465  0.40487130    -0.17900
C798        C  0.01416828  0.74875505  0.37474352     0.10500
S799        S  0.00673880  0.63250941  0.38615634    -0.32900
S800        S  0.01401554  0.79458319  0.36864171    -0.32900
H801        H  0.05017248  0.79600081  0.36648008     0.28500
H802        H  0.01414631  0.63039812  0.35013164     0.28500
H803        H  0.05336811  0.67291108  0.35339888     0.19100
H804        H  0.47944176  0.75662878  0.41789087     0.19100
C805        C  0.04712301  0.76664986  0.29914907    -0.06700
C806        C  0.01399300  0.77560455  0.28637059    -0.17900
C807        C  0.01001825  0.79698533  0.25665979     0.10500
C808        C  0.03925275  0.80350891  0.23483628    -0.06700
C809        C  0.07070998  0.80293384  0.25373791    -0.17900
C810        C  0.07288993  0.78958124  0.28734554     0.10500
S811        S  0.46870775  0.81994423  0.25160768    -0.32900
S812        S  0.10258057  0.80979364  0.31690705    -0.32900
H813        H  0.11564617  0.83444548  0.29353235     0.28500
H814        H  0.48364402  0.85269156  0.25322001     0.28500
H815        H  0.99137761  0.77044998  0.30192138     0.19100
H816        H  0.09399060  0.81428836  0.24333508     0.19100
C817        C  0.07733398  0.80723342  0.18224677    -0.06700
C818        C  0.08471724  0.77121504  0.18228947    -0.17900
C819        C  0.11601484  0.75706263  0.17028345     0.10500
C820        C  0.14323900  0.77910730  0.16156932    -0.06700
C821        C  0.13667222  0.81474784  0.16088564    -0.17900
C822        C  0.10347561  0.82878911  0.16769963     0.10500
S823        S  0.11856858  0.71088667  0.16676567    -0.32900
S824        S  0.09456856  0.87120232  0.15048325    -0.32900
H825        H  0.12853764  0.87951665  0.14028106     0.28500
H826        H  0.14377033  0.70940873  0.14008072     0.28500
H827        H  0.06495325  0.75352485  0.19077208     0.19100
H828        H  0.15739518  0.83148962  0.15260279     0.19100
C829        C  0.34075023  0.76654859  0.09824436    -0.06700
C830        C  0.36472484  0.74169629  0.10845133    -0.17900
C831        C  0.40039880  0.74498606  0.10170275     0.10500
C832        C  0.41356836  0.77467815  0.08296956    -0.06700
C833        C  0.38830264  0.80056983  0.07567058    -0.17900
C834        C  0.35284922  0.79641424  0.08195081     0.10500
S835        S  0.42572397  0.71014135  0.12083721    -0.32900
S836        S  0.32438751  0.83143073  0.07019105    -0.32900
H837        H  0.29664668  0.81072412  0.06045832     0.28500
H838        H  0.45781185  0.71503020  0.10444935     0.28500
H839        H  0.35547035  0.71954750  0.12280436     0.19100
H840        H  0.39521877  0.82487315  0.06435599     0.19100
C841        C  0.04730360  0.69995364  0.29487564    -0.06700
C842        C  0.07339966  0.67514692  0.28587311    -0.17900
C843        C  0.06660308  0.64357280  0.26968999     0.10500
C844        C  0.03267821  0.63462726  0.26096869    -0.06700
C845        C  0.00644141  0.65852161  0.26808005    -0.17900
C846        C  0.01257842  0.68964264  0.28609531     0.10500
S847        S  0.10263587  0.61447085  0.26294584    -0.32900
S848        S  0.47309129  0.70998444  0.30500843    -0.32900
H849        H  0.95138805  0.69918366  0.27822919     0.28500
H850        H  0.09150361  0.60486618  0.22996756     0.28500
H851        H  0.09948859  0.67753152  0.29431733     0.19100
H852        H  0.47865122  0.65225352  0.26355214     0.19100
C853        C  0.02384235  0.93208951  0.21330763    -0.06700
C854        C  0.99975141  0.91383719  0.19405537    -0.17900
C855        C  0.00283061  0.87775695  0.18794018     0.10500
C856        C  0.03252905  0.85837284  0.19963237    -0.06700
C857        C  0.05610627  0.87779844  0.21944036    -0.17900
C858        C  0.05270062  0.91340973  0.22553908     0.10500
S859        S  0.46266237  0.85871493  0.17197481    -0.32900
S860        S  0.08776952  0.93385404  0.24756045    -0.32900
H861        H  0.08814391  0.96260029  0.22545972     0.28500
H862        H  0.44886519  0.88770330  0.15507966     0.28500
H863        H  0.47457040  0.92821029  0.18641530     0.19100
H864        H  0.07919207  0.86572149  0.22890674     0.19100
C865        C  0.34548402  0.54295151  0.29628276    -0.06700
C866        C  0.36553988  0.51241896  0.30147664    -0.17900
C867        C  0.40014203  0.50899709  0.29027662     0.10500
C868        C  0.41593442  0.53585850  0.27175332    -0.06700
C869        C  0.39580555  0.56454414  0.26299681    -0.17900
C870        C  0.36105047  0.56813270  0.27396816     0.10500
S871        S  0.42164943  0.96814986  0.29666914    -0.32900
S872        S  0.33827656  0.60581331  0.25897822    -0.32900
H873        H  0.35976141  0.61238974  0.22985120     0.28500
H874        H  0.44144021  0.96762063  0.26556545     0.28500
H875        H  0.35408548  0.98971790  0.31203851     0.19100
H876        H  0.40769601  0.58475362  0.24774023     0.19100
C877        C  0.29623830  0.97396106  0.40085386    -0.06700
C878        C  0.27001944  0.97598018  0.37560232    -0.17900
C879        C  0.27450612  0.99333209  0.34354035     0.10500
C880        C  0.30110599  0.51758692  0.33998763    -0.06700
C881        C  0.32561234  0.01815997  0.36664519    -0.17900
C882        C  0.32667463  0.99341841  0.39230385     0.10500
S883        S  0.24462764  0.48363934  0.30960325    -0.32900
S884        S  0.37114149  0.98380465  0.40204358    -0.32900
H885        H  0.37014683  0.95088547  0.38689853     0.28500
H886        H  0.23226294  0.45241829  0.32314364     0.28500
H887        H  0.24756133  0.96032096  0.37879541     0.19100
H888        H  0.34616663  0.53609479  0.36587433     0.19100
C889        C  0.23422471  0.59417464  0.17316280    -0.06700
C890        C  0.20993885  0.61975626  0.18454243    -0.17900
C891        C  0.21720705  0.65465109  0.18387552     0.10500
C892        C  0.24729077  0.66615953  0.16734315    -0.06700
C893        C  0.27291540  0.64203829  0.15794394    -0.17900
C894        C  0.26793255  0.60653841  0.16375894     0.10500
S895        S  0.18817527  0.68342097  0.20682413    -0.32900
S896        S  0.30456673  0.57789215  0.15723755    -0.32900
H897        H  0.32980532  0.60336307  0.15288594     0.28500
H898        H  0.21494384  0.70318916  0.22042094     0.28500
H899        H  0.18606685  0.61322147  0.19766914     0.19100
H900        H  0.29679094  0.65105335  0.14621477     0.19100
C901        C  0.24824534  0.54709934  0.21273166    -0.06700
C902        C  0.23927938  0.56886412  0.24098323    -0.17900
C903        C  0.26006272  0.57359259  0.26921685     0.10500
C904        C  0.28355921  0.54661553  0.27878442    -0.06700
C905        C  0.28955142  0.52074272  0.25284425    -0.17900
C906        C  0.27477421  0.52209772  0.21930897     0.10500
S907        S  0.25803064  0.61777477  0.28512045    -0.32900
S908        S  0.28897682  0.98931062  0.18897973    -0.32900
H909        H  0.29220800  0.50936212  0.15984653     0.28500
H910        H  0.24496756  0.63356473  0.25508944     0.28500
H911        H  0.21705418  0.58570132  0.23954804     0.19100
H912        H  0.30773172  0.50009121  0.25806818     0.19100
C913        C  0.18707984  0.54874071  0.18990069    -0.06700
C914        C  0.16149977  0.56265257  0.16803422    -0.17900
C915        C  0.12610239  0.55977664  0.17555115     0.10500
C916        C  0.11515121  0.54060222  0.20483160    -0.06700
C917        C  0.13977733  0.52426982  0.22488818    -0.17900
C918        C  0.17484747  0.52619998  0.21709470     0.10500
S919        S  0.09690324  0.58238804  0.14730852    -0.32900
S920        S  0.20052856  0.49537211  0.24065550    -0.32900
H921        H  0.17494580  0.47022014  0.24528648     0.28500
H922        H  0.07574764  0.59649718  0.17391877     0.28500
H923        H  0.16932910  0.57748891  0.14554139     0.19100
H924        H  0.13136213  0.50860975  0.24666805     0.19100
C925        C  0.22287952  0.96387990  0.52324047    -0.06700
C926        C  0.23922896  0.93212197  0.51418273    -0.17900
C927        C  0.26285197  0.92746900  0.48752550     0.10500
C928        C  0.26606252  0.95240207  0.46088381    -0.06700
C929        C  0.24700368  0.98343679  0.46595518    -0.17900
C930        C  0.22609208  0.98976049  0.49648406     0.10500
S931        S  0.28591247  0.88665211  0.48820259    -0.32900
S932        S  0.20025542  0.52862166  0.49537352    -0.32900
H933        H  0.18951183  0.52943691  0.02945970     0.28500
H934        H  0.28502530  0.88225176  0.52457363     0.28500
H935        H  0.23348208  0.90832913  0.52689281     0.19100
H936        H  0.24885324  0.00324363  0.44629872     0.19100
C937        C  0.21018028  0.48850595  0.08823583    -0.06700
C938        C  0.23105839  0.51753743  0.08269417    -0.17900
C939        C  0.23646272  0.54160077  0.10979565     0.10500
C940        C  0.23106312  0.53162415  0.14576408    -0.06700
C941        C  0.21946859  0.49784281  0.15012310    -0.17900
C942        C  0.20211078  0.98095069  0.12419941     0.10500
S943        S  0.24464074  0.58414617  0.09364021    -0.32900
S944        S  0.16905733  0.95189047  0.14024140    -0.32900
H945        H  0.14669897  0.95518957  0.11229278     0.28500
H946        H  0.21269739  0.59731351  0.10596046     0.28500
H947        H  0.23993833  0.52377913  0.05676594     0.19100
H948        H  0.21603533  0.98786298  0.17605941     0.19100
C949        C  0.20640383  0.92679052  0.07644892    -0.06700
C950        C  0.18141839  0.90047397  0.07520295    -0.17900
C951        C  0.18936786  0.86639891  0.08436238     0.10500
C952        C  0.22164082  0.85859002  0.09904658    -0.06700
C953        C  0.24536496  0.88457687  0.10377296    -0.17900
C954        C  0.23940061  0.91766789  0.09143084     0.10500
S955        S  0.15809722  0.83309895  0.07667326    -0.32900
S956        S  0.27662868  0.94533540  0.09544676    -0.32900
H957        H  0.27587008  0.96063796  0.06263519     0.28500
H958        H  0.13037507  0.85479927  0.06760351     0.28500
H959        H  0.15578811  0.90579436  0.06629375     0.19100
H960        H  0.27003514  0.87839152  0.11530192     0.19100
C961        C  0.36812421  0.73615206  0.40660348    -0.06700
C962        C  0.37031621  0.72235413  0.44019955    -0.17900
C963        C  0.39887193  0.70264764  0.45074568     0.10500
C964        C  0.42970751  0.70080940  0.42961477    -0.06700
C965        C  0.42558041  0.71268420  0.39483120    -0.17900
C966        C  0.39694124  0.73194690  0.38409562     0.10500
S967        S  0.38830301  0.67168789  0.48380086    -0.32900
S968        S  0.39881504  0.74984936  0.34091911    -0.32900
H969        H  0.38264247  0.78094491  0.35105401     0.28500
H970        H  0.36699938  0.69395617  0.50399716     0.28500
H971        H  0.34741966  0.72268646  0.45685010     0.19100
H972        H  0.44503666  0.70756350  0.37502620     0.19100
C973        C  0.28854223  0.64262455  0.36843503    -0.06700
C974        C  0.26268800  0.61818710  0.36923462    -0.17900
C975        C  0.26816133  0.58602109  0.35324872     0.10500
C976        C  0.30057303  0.57884227  0.33511427    -0.06700
C977        C  0.32804769  0.60101407  0.34226888    -0.17900
C978        C  0.32215156  0.63273023  0.35797279     0.10500
S979        S  0.23039103  0.55941020  0.35019804    -0.32900
S980        S  0.35855295  0.65989647  0.36373496    -0.32900
H981        H  0.34639552  0.67025313  0.39686890     0.28500
H982        H  0.21312134  0.57250413  0.38008497     0.28500
H983        H  0.23699999  0.62579559  0.37824043     0.19100
H984        H  0.35440829  0.59453827  0.33507614     0.19100
C985        C  0.27011714  0.84638926  0.38144077    -0.06700
C986        C  0.24482094  0.86200393  0.40242233    -0.17900
C987        C  0.24839607  0.89548288  0.41460872     0.10500
C988        C  0.28142266  0.91231576  0.41052278    -0.06700
C989        C  0.30264122  0.89947944  0.38297734    -0.17900
C990        C  0.29792665  0.86643540  0.36906490     0.10500
S991        S  0.20785889  0.91331205  0.43173503    -0.32900
S992        S  0.33040333  0.85010444  0.33902902    -0.32900
H993        H  0.33685578  0.82067784  0.35910708     0.28500
H994        H  0.21139786  0.94681175  0.41922526     0.28500
H995        H  0.22154700  0.84793859  0.40900616     0.19100
H996        H  0.32506183  0.91380445  0.37457728     0.19100
C997        C  0.09627401  0.73246585  0.33018550    -0.06700
C998        C  0.12169272  0.73441983  0.30273210    -0.17900
C999        C  0.15733216  0.73891425  0.30847222     0.10500
C1000       C  0.17025265  0.73771776  0.34255400    -0.06700
C1001       C  0.14609012  0.73427321  0.36980071    -0.17900
C1002       C  0.11022953  0.73403342  0.36497025     0.10500
S1003       S  0.18416632  0.74903957  0.27136404    -0.32900
S1004       S  0.08624813  0.73835528  0.40582275    -0.32900
H1005       H  0.11035327  0.75846543  0.42359226     0.28500
H1006       H  0.19813890  0.77840047  0.28711710     0.28500
H1007       H  0.11323059  0.73461645  0.27600290     0.19100
H1008       H  0.15534435  0.73317393  0.39619412     0.19100
C1009       C  0.47998952  0.88374991  0.03158269    -0.06700
C1010       C  0.46045827  0.86179586  0.01075358    -0.17900
C1011       C  0.44843041  0.82985722  0.02303550     0.10500
C1012       C  0.45750205  0.81844846  0.05740057    -0.06700
C1013       C  0.47284069  0.84357773  0.07881181    -0.17900
C1014       C  0.48597376  0.87426320  0.06614245     0.10500
S1015       S  0.42295111  0.80610643  0.99206403    -0.32900
S1016       S  0.51159380  0.89941786  0.09550534    -0.32900
H1017       H  0.53549012  0.91006283  0.06975371     0.28500
H1018       H  0.40904501  0.78096045  0.01383703     0.28500
H1019       H  0.45122526  0.87025822  0.48427414     0.19100
H1020       H  0.47632522  0.83925663  0.10595631     0.19100
C1021       C  0.32739938  0.94546599  0.45151039    -0.06700
C1022       C  0.33195740  0.97587272  0.47223518    -0.17900
C1023       C  0.36287525  0.98433913  0.48767278     0.10500
C1024       C  0.39142660  0.96276708  0.48186313    -0.06700
C1025       C  0.38692322  0.93055500  0.46622156    -0.17900
C1026       C  0.35560069  0.92083794  0.45154772     0.10500
S1027       S  0.36318563  0.52740078  0.50863623    -0.32900
S1028       S  0.35915385  0.87921805  0.43043196    -0.32900
H1029       H  0.32628677  0.86662987  0.43753291     0.28500
H1030       H  0.39764342  0.53543178  0.50081947     0.28500
H1031       H  0.31207150  0.99557895  0.47377750     0.19100
H1032       H  0.40915379  0.91343774  0.46344335     0.19100
C1033       C  0.09258379  0.97726673  0.02092138    -0.06700
C1034       C  0.10502158  0.99967473  0.04598329    -0.17900
C1035       C  0.13883158  0.99733675  0.05835006     0.10500
C1036       C  0.16187191  0.96994368  0.04656838    -0.06700
C1037       C  0.14914556  0.94883540  0.01953249    -0.17900
C1038       C  0.11520323  0.95148055  0.00747463     0.10500
S1039       S  0.14848741  0.53182204  0.08888203    -0.32900
S1040       S  0.10140813  0.92096193  0.47476539    -0.32900
H1041       H  0.07059927  0.91321277  0.49302074     0.28500
H1042       H  0.12627952  0.55705448  0.07511019     0.28500
H1043       H  0.08619213  0.51903420  0.05878850     0.19100
H1044       H  0.16498680  0.93063333  0.50689451     0.19100
C1045       C  0.48421914  0.58008241  0.46339342    -0.06700
C1046       C  0.50959142  0.60401100  0.47151100    -0.17900
C1047       C  0.50518136  0.63938205  0.46462481     0.10500
C1048       C  0.47331497  0.65206906  0.45066026    -0.06700
C1049       C  0.44816986  0.62735005  0.44217852    -0.17900
C1050       C  0.45355494  0.59196093  0.44777771     0.10500
S1051       S  0.04096784  0.66716416  0.97291306    -0.32900
S1052       S  0.41986549  0.56329405  0.43471650    -0.32900
H1053       H  0.44216251  0.53666178  0.42323119     0.28500
H1054       H  0.06508764  0.64083821  0.48610781     0.28500
H1055       H  0.03337117  0.59446058  0.98371574     0.19100
H1056       H  0.42461715  0.63513063  0.42960323     0.19100
O1057       O  0.03254728  0.99351199  0.53181757    -0.72400
O1058       O  0.43702979  0.98523018  0.51577507    -0.72600
O1059       O  0.48496960  0.94397862  0.53937767    -0.72500
O1060       O  0.48344393  0.53712347  0.50736463    -0.72500
O1061       O  0.49692926  0.51768508  0.95566925    -0.72400
O1062       O  0.49435790  0.92532180  0.98759477    -0.72400
O1063       O  0.44859002  0.96903956  0.96325816    -0.72400
O1064       O  0.04528922  0.97198361  0.98148490    -0.72600
V1065       V  0.48527159  0.98929644  0.52228870     1.35200
V1066       V  0.49585523  0.97225419  0.97309743     1.35200
C1067       C  0.05453743  0.98185759  0.50976615     0.76900
C1068       C  0.42650240  0.97310627  0.98753272     0.76900
C1069       C  0.48649667  0.91885770  0.51847954     0.76800
C1070       C  0.48850680  0.54232131  0.97602703     0.76700
O1071       O  0.25670426  0.78734442  0.90104594    -0.68000
O1072       O  0.26521841  0.69010700  0.89692011    -0.72600
O1073       O  0.30608496  0.74119198  0.91473234    -0.72500
O1074       O  0.21417925  0.73595261  0.88338618    -0.72500
O1075       O  0.23138050  0.74178775  0.82986697    -0.72400
O1076       O  0.32512276  0.74217622  0.86138503    -0.72400
O1077       O  0.28150077  0.69428798  0.84261521    -0.72400
O1078       O  0.27750761  0.79123753  0.84832385    -0.72600
V1079       V  0.26060717  0.73887926  0.89785183     1.35200
V1080       V  0.27824604  0.74246323  0.84641974     1.35200
C1081       C  0.26789740  0.80579230  0.87631284     0.76900
C1082       C  0.27707862  0.67612077  0.86941485     0.76900
C1083       C  0.33147191  0.74015186  0.89360904     0.76800
C1084       C  0.20650179  0.73793893  0.85156774     0.76700
C1085       C  0.19880882  0.96445023  0.55788358    -0.03100
C1086       C  0.22331203  0.55492552  0.67980809    -0.03100
C1087       C  0.29259533  0.94269797  0.93040492    -0.03100
C1088       C  0.30520796  0.54398868  0.81110393    -0.03100
O1089       O  0.00305703  0.99101269  0.70274002    -0.72400
O1090       O  0.00922153  0.58754334  0.72245730    -0.72600
O1091       O  0.05136713  0.53923908  0.69528596    -0.72500
O1092       O  0.45855664  0.54028823  0.72752912    -0.72500
O1093       O  0.97455044  0.52525728  0.77931892    -0.72400
O1094       O  0.06827768  0.52901439  0.74775693    -0.72400
O1095       O  0.02409712  0.57427215  0.77496883    -0.72400
O1096       O  0.02094718  0.97941116  0.75456482    -0.72600
V1097       V  0.00548748  0.53881128  0.71267082     1.35200
V1098       V  0.02148815  0.52705051  0.76277498     1.35200
C1099       C  0.01373995  0.96878674  0.72448310     0.76900
C1100       C  0.01999513  0.59705611  0.75205854     0.76900
C1101       C  0.07569468  0.53568352  0.71623214     0.76800
C1102       C  0.45059201  0.53337443  0.75871873     0.76700
O1103       O  0.24857437  0.72769123  0.67258831    -0.72400
O1104       O  0.24030227  0.81950389  0.63905794    -0.72600
O1105       O  0.19776510  0.77645758  0.66995556    -0.72500
O1106       O  0.29219216  0.77257096  0.64171497    -0.72500
O1107       O  0.27786363  0.75370230  0.59070413    -0.72400
O1108       O  0.18264351  0.75650532  0.61964659    -0.72400
O1109       O  0.22487917  0.79970927  0.58878466    -0.72400
O1110       O  0.23419261  0.70861700  0.62164955    -0.72600
V1111       V  0.24461944  0.77341884  0.65487604     1.35200
V1112       V  0.23044809  0.75472110  0.60620858     1.35200
C1113       C  0.24185478  0.70256635  0.65282291     0.76900
C1114       C  0.22872260  0.82494629  0.60895380     0.76900
C1115       C  0.17415492  0.76960153  0.64887326     0.76800
C1116       C  0.30110486  0.76369680  0.61116636     0.76700
C1117       C  0.05435291  0.73076536  0.81904738    -0.03100
C1118       C  0.46729323  0.68923692  0.94400321    -0.03100
C1119       C  0.03574743  0.81804241  0.69502714    -0.03100
C1120       C  0.44993759  0.78137058  0.57162359    -0.03100
C1121       C  0.47369984  0.77783858  0.60513982    -0.06700
C1122       C  0.46028984  0.77728321  0.64004012    -0.17900
C1123       C  0.48198822  0.78068461  0.66907196     0.10500
C1124       C  0.01217149  0.80138616  0.66539991    -0.06700
C1125       C  0.02315160  0.80563101  0.62979099    -0.17900
C1126       C  0.50952171  0.78424248  0.60328390     0.10500
S1127       S  0.47263699  0.75073845  0.70341663    -0.32900
S1128       S  0.53914043  0.75544218  0.58078225    -0.32900
H1129       H  0.51540974  0.72852114  0.57756708     0.28500
H1130       H  0.50727683  0.74188950  0.70920150     0.28500
H1131       H  0.43350483  0.77268507  0.64596938     0.19100
H1132       H  0.04653245  0.81914815  0.62310178     0.19100
C1133       C  0.47208378  0.71072805  0.47984410    -0.06700
C1134       C  0.49190283  0.74079056  0.48411320    -0.17900
C1135       C  0.48844904  0.76268353  0.51393006     0.10500
C1136       C  0.46226924  0.75591752  0.54059515    -0.06700
C1137       C  0.44511653  0.72454300  0.53584138    -0.17900
C1138       C  0.45525827  0.70009203  0.51109392     0.10500
S1139       S  0.51762654  0.79901923  0.51486985    -0.32900
S1140       S  0.45478121  0.65578126  0.52630370    -0.32900
H1141       H  0.43542096  0.66100463  0.55724702     0.28500
H1142       H  0.52774681  0.79876627  0.47950490     0.28500
H1143       H  0.51192655  0.74510442  0.96396319     0.19100
H1144       H  0.42383770  0.71698929  0.55157890     0.19100
C1145       C  0.03270171  0.72454856  0.85321863    -0.06700
C1146       C  0.03454014  0.69069981  0.86609314    -0.17900
C1147       C  0.01136501  0.67810428  0.89076122     0.10500
C1148       C  0.99307629  0.70149461  0.91389085    -0.06700
C1149       C  0.99396865  0.73671660  0.90336006    -0.17900
C1150       C  0.01208143  0.74826481  0.87331220     0.10500
S1151       S  0.00183114  0.63294317  0.88378819    -0.32900
S1152       S  0.01191910  0.79408112  0.86682276    -0.32900
H1153       H  0.04790992  0.79556062  0.86235151     0.28500
H1154       H  0.01309323  0.63029414  0.84876361     0.28500
H1155       H  0.05209580  0.67229615  0.85380818     0.19100
H1156       H  0.47826163  0.75434112  0.91776079     0.19100
C1157       C  0.04570910  0.76488356  0.79756641    -0.06700
C1158       C  0.01237186  0.77429075  0.78562786    -0.17900
C1159       C  0.00778512  0.79581912  0.75615088     0.10500
C1160       C  0.03641246  0.80212892  0.73340476    -0.06700
C1161       C  0.06860803  0.80028843  0.75100671    -0.17900
C1162       C  0.07172939  0.78687415  0.78452626     0.10500
S1163       S  0.46623752  0.81803464  0.75189918    -0.32900
S1164       S  0.10238745  0.80714536  0.81305614    -0.32900
H1165       H  0.11728582  0.82946421  0.78839955     0.28500
H1166       H  0.48098319  0.85078683  0.75473904     0.28500
H1167       H  0.99003165  0.76917259  0.80156790     0.19100
H1168       H  0.09162845  0.81163544  0.73999585     0.19100
C1169       C  0.07292057  0.80843285  0.67976817    -0.06700
C1170       C  0.07990046  0.77250220  0.67663429    -0.17900
C1171       C  0.11077026  0.75921103  0.66280529     0.10500
C1172       C  0.13845115  0.78146246  0.65688371    -0.06700
C1173       C  0.13226679  0.81712987  0.65901578    -0.17900
C1174       C  0.09912035  0.83086764  0.66672822     0.10500
S1175       S  0.11202006  0.71405404  0.65243793    -0.32900
S1176       S  0.09062677  0.87463103  0.65302720    -0.32900
H1177       H  0.12276316  0.88077442  0.63663844     0.28500
H1178       H  0.13342394  0.71697620  0.62274938     0.28500
H1179       H  0.06002646  0.75433108  0.68356187     0.19100
H1180       H  0.15320715  0.83429710  0.65235643     0.19100
C1181       C  0.33770027  0.76692581  0.59960138    -0.06700
C1182       C  0.36166901  0.74140477  0.60820871    -0.17900
C1183       C  0.39734047  0.74480015  0.60108298     0.10500
C1184       C  0.41043619  0.77513049  0.58330928    -0.06700
C1185       C  0.38520953  0.80149433  0.57765099    -0.17900
C1186       C  0.34986334  0.79743822  0.58465079     0.10500
S1187       S  0.42285404  0.70910790  0.61832455    -0.32900
S1188       S  0.32150000  0.83326341  0.57531543    -0.32900
H1189       H  0.29424826  0.81313079  0.56325610     0.28500
H1190       H  0.45510651  0.71561560  0.60295181     0.28500
H1191       H  0.35245918  0.71863722  0.62154305     0.19100
H1192       H  0.39207759  0.82616860  0.56711905     0.19100
C1193       C  0.04511545  0.69828045  0.79457958    -0.06700
C1194       C  0.07071985  0.67283366  0.78617914    -0.17900
C1195       C  0.06349152  0.64154110  0.76970183     0.10500
C1196       C  0.02955036  0.63333519  0.76038835    -0.06700
C1197       C  0.00368398  0.65766131  0.76733815    -0.17900
C1198       C  0.01026338  0.68855309  0.78559366     0.10500
S1199       S  0.09894960  0.61172930  0.76328426    -0.32900
S1200       S  0.47135979  0.70780554  0.80459859    -0.32900
H1201       H  0.94943150  0.69946945  0.77756844     0.28500
H1202       H  0.08897162  0.60411597  0.72934066     0.28500
H1203       H  0.09660968  0.67449038  0.79538516     0.19100
H1204       H  0.47717082  0.65064882  0.76172476     0.19100
C1205       C  0.01947840  0.93136758  0.71535148    -0.06700
C1206       C  0.99546597  0.91355014  0.69562423    -0.17900
C1207       C  0.99840655  0.87759262  0.68921638     0.10500
C1208       C  0.02816525  0.85818163  0.70058412    -0.06700
C1209       C  0.05134519  0.87695515  0.72141566    -0.17900
C1210       C  0.04791679  0.91241430  0.72809533     0.10500
S1211       S  0.45991574  0.85812710  0.67248444    -0.32900
S1212       S  0.08247443  0.93232537  0.75140192    -0.32900
H1213       H  0.08394870  0.96116978  0.72947280     0.28500
H1214       H  0.44731569  0.88711326  0.65467199     0.28500
H1215       H  0.47239861  0.92737324  0.68712544     0.19100
H1216       H  0.07414789  0.86451512  0.73116109     0.19100
C1217       C  0.34339312  0.54083261  0.79471457    -0.06700
C1218       C  0.36359726  0.51036160  0.79955995    -0.17900
C1219       C  0.39825077  0.50737743  0.78867893     0.10500
C1220       C  0.41380878  0.53441237  0.77028455    -0.06700
C1221       C  0.39339474  0.56284839  0.76125993    -0.17900
C1222       C  0.35859424  0.56617050  0.77230035     0.10500
S1223       S  0.42097834  0.96931695  0.80314758    -0.32900
S1224       S  0.33520186  0.60364218  0.75751952    -0.32900
H1225       H  0.35859829  0.61350085  0.73102373     0.28500
H1226       H  0.44075472  0.96705801  0.77210211     0.28500
H1227       H  0.35215866  0.98846992  0.81420382     0.19100
H1228       H  0.40515366  0.58304737  0.74590319     0.19100
C1229       C  0.29520793  0.97046723  0.90048738    -0.06700
C1230       C  0.26856347  0.97259085  0.87574697    -0.17900
C1231       C  0.27247435  0.99066585  0.84408617     0.10500
C1232       C  0.30025385  0.51503660  0.83917808    -0.06700
C1233       C  0.32318356  0.01598779  0.86773325    -0.17900
C1234       C  0.32566781  0.98931761  0.89135863     0.10500
S1235       S  0.24442813  0.48014492  0.80895294    -0.32900
S1236       S  0.36969979  0.97359794  0.89587683    -0.32900
H1237       H  0.38747128  0.00336059  0.88556931     0.28500
H1238       H  0.22721159  0.45273798  0.82529372     0.28500
H1239       H  0.24620546  0.95676433  0.87890987     0.19100
H1240       H  0.34583280  0.53357119  0.86424099     0.19100
C1241       C  0.23010386  0.59456468  0.67354994    -0.06700
C1242       C  0.20444197  0.61934159  0.68340852    -0.17900
C1243       C  0.20932141  0.65455630  0.68055720     0.10500
C1244       C  0.24007410  0.66699948  0.66581386    -0.06700
C1245       C  0.26734198  0.64380275  0.65916423    -0.17900
C1246       C  0.26353707  0.60818083  0.66520926     0.10500
S1247       S  0.17494279  0.68173946  0.69744726    -0.32900
S1248       S  0.30149213  0.58095460  0.66058893    -0.32900
H1249       H  0.32567974  0.60717741  0.65488873     0.28500
H1250       H  0.19338414  0.71231359  0.69968616     0.28500
H1251       H  0.18069479  0.61212924  0.69633145     0.19100
H1252       H  0.29154665  0.65365950  0.64899526     0.19100
C1253       C  0.24553834  0.54713161  0.71264641    -0.06700
C1254       C  0.23700663  0.56877643  0.74104354    -0.17900
C1255       C  0.25752541  0.57232868  0.76970504     0.10500
C1256       C  0.28097848  0.54494159  0.77861807    -0.06700
C1257       C  0.28674743  0.51966792  0.75208699    -0.17900
C1258       C  0.27201653  0.52191314  0.71863662     0.10500
S1259       S  0.25517844  0.61595864  0.78697961    -0.32900
S1260       S  0.28478980  0.98859807  0.68971289    -0.32900
H1261       H  0.29093069  0.51181249  0.65920299     0.28500
H1262       H  0.24510589  0.63286474  0.75633534     0.28500
H1263       H  0.21525083  0.58628412  0.73946694     0.19100
H1264       H  0.30497631  0.49890144  0.75670537     0.19100
C1265       C  0.18402282  0.54816098  0.69016322    -0.06700
C1266       C  0.15838933  0.56075977  0.66755280    -0.17900
C1267       C  0.12299717  0.55782596  0.67503182     0.10500
C1268       C  0.11206643  0.53955350  0.70491527    -0.06700
C1269       C  0.13679498  0.52425252  0.72567821    -0.17900
C1270       C  0.17192133  0.52640733  0.71804517     0.10500
S1271       S  0.09377533  0.57962743  0.64621250    -0.32900
S1272       S  0.19794113  0.49649703  0.74237789    -0.32900
H1273       H  0.17219007  0.47234875  0.75047798     0.28500
H1274       H  0.07330933  0.59501488  0.67267289     0.28500
H1275       H  0.16621925  0.57506960  0.64469293     0.19100
H1276       H  0.12840796  0.50926509  0.74793962     0.19100
C1277       C  0.22346284  0.96198503  0.02327863    -0.06700
C1278       C  0.23839811  0.92977089  0.01365263    -0.17900
C1279       C  0.26236539  0.92490778  0.98744003     0.10500
C1280       C  0.26594990  0.94970660  0.96079452    -0.06700
C1281       C  0.24748054  0.98110757  0.96589997    -0.17900
C1282       C  0.22718124  0.98797262  0.99669368     0.10500
S1283       S  0.28513056  0.88405968  0.98872903    -0.32900
S1284       S  0.20264619  0.52939302  0.99574641    -0.32900
H1285       H  0.19055159  0.53069409  0.53009270     0.28500
H1286       H  0.28308640  0.87965823  0.02506873     0.28500
H1287       H  0.23147644  0.90598085  0.02583696     0.19100
H1288       H  0.24968666  0.00092952  0.94629120     0.19100
C1289       C  0.20894304  0.48846653  0.58845252    -0.06700
C1290       C  0.23016511  0.51733269  0.58329810    -0.17900
C1291       C  0.23499979  0.54147254  0.61042935     0.10500
C1292       C  0.22855323  0.53168774  0.64623730    -0.06700
C1293       C  0.21683659  0.49790320  0.65052379    -0.17900
C1294       C  0.19857410  0.98187363  0.62384203     0.10500
S1295       S  0.24392859  0.58388692  0.59447741    -0.32900
S1296       S  0.16502006  0.95272069  0.63860728    -0.32900
H1297       H  0.14351000  0.95610194  0.61001396     0.28500
H1298       H  0.21124915  0.59680202  0.60497346     0.28500
H1299       H  0.23975477  0.52339267  0.55753688     0.19100
H1300       H  0.21102661  0.98805948  0.67624394     0.19100
C1301       C  0.20439306  0.92824268  0.57570244    -0.06700
C1302       C  0.17959439  0.90184864  0.57345182    -0.17900
C1303       C  0.18749263  0.86784379  0.58241740     0.10500
C1304       C  0.21934093  0.85987809  0.59788826    -0.06700
C1305       C  0.24259395  0.88596250  0.60402670    -0.17900
C1306       C  0.23684183  0.91916925  0.59192710     0.10500
S1307       S  0.15559942  0.83569005  0.57384889    -0.32900
S1308       S  0.27381612  0.94687703  0.59750638    -0.32900
H1309       H  0.27381893  0.96283139  0.56499405     0.28500
H1310       H  0.17667640  0.81875253  0.54876214     0.28500
H1311       H  0.15408095  0.90677065  0.56388056     0.19100
H1312       H  0.26681372  0.87980006  0.61646109     0.19100
C1313       C  0.36672067  0.73176721  0.90673432    -0.06700
C1314       C  0.36886373  0.71773708  0.94025718    -0.17900
C1315       C  0.39834355  0.69980867  0.95163514     0.10500
C1316       C  0.42930146  0.69860229  0.93055028    -0.06700
C1317       C  0.42477839  0.70970588  0.89553950    -0.17900
C1318       C  0.39584569  0.72831115  0.88456153     0.10500
S1319       S  0.38998641  0.67124199  0.98745446    -0.32900
S1320       S  0.39778122  0.74630789  0.84143560    -0.32900
H1321       H  0.38181876  0.77740714  0.85172980     0.28500
H1322       H  0.36567501  0.69257897  0.00505220     0.28500
H1323       H  0.34573141  0.71732661  0.95654103     0.19100
H1324       H  0.44419587  0.70462542  0.87568287     0.19100
C1325       C  0.28728844  0.63987459  0.86793299    -0.06700
C1326       C  0.26200626  0.61491342  0.87033564    -0.17900
C1327       C  0.26729222  0.58286318  0.85404320     0.10500
C1328       C  0.29921849  0.57616802  0.83483591    -0.06700
C1329       C  0.32658326  0.59870686  0.84089974    -0.17900
C1330       C  0.32060245  0.63060729  0.85596624     0.10500
S1331       S  0.22967197  0.55588054  0.85174393    -0.32900
S1332       S  0.35639061  0.65906243  0.85822969    -0.32900
H1333       H  0.34842731  0.66636147  0.89331345     0.28500
H1334       H  0.21179528  0.56990879  0.88082885     0.28500
H1335       H  0.23661074  0.62215857  0.88044453     0.19100
H1336       H  0.35279726  0.59262311  0.83287370     0.19100
C1337       C  0.27070117  0.84320138  0.88151573    -0.06700
C1338       C  0.24486099  0.85917370  0.90147211    -0.17900
C1339       C  0.24853307  0.89242646  0.91420124     0.10500
C1340       C  0.28174423  0.90905629  0.91087154    -0.06700
C1341       C  0.30398224  0.89578319  0.88436945    -0.17900
C1342       C  0.29953353  0.86263443  0.87062895     0.10500
S1343       S  0.20796007  0.90990976  0.93166470    -0.32900
S1344       S  0.33377928  0.84507066  0.84347286    -0.32900
H1345       H  0.33765825  0.81597415  0.86467522     0.28500
H1346       H  0.21134495  0.94382466  0.92036498     0.28500
H1347       H  0.22119481  0.84538869  0.90715076     0.19100
H1348       H  0.32702832  0.90976789  0.87703676     0.19100
C1349       C  0.09470127  0.73100294  0.82927419    -0.06700
C1350       C  0.12030549  0.73094737  0.80187866    -0.17900
C1351       C  0.15616772  0.73416633  0.80755867     0.10500
C1352       C  0.16885612  0.73575734  0.84172890    -0.06700
C1353       C  0.14440208  0.73515394  0.86898098    -0.17900
C1354       C  0.10853729  0.73463002  0.86396709     0.10500
S1355       S  0.18413836  0.73730864  0.76996114    -0.32900
S1356       S  0.08425188  0.74124862  0.90434652    -0.32900
H1357       H  0.10832116  0.76205440  0.92133025     0.28500
H1358       H  0.19795110  0.76891061  0.78061679     0.28500
H1359       H  0.11196115  0.72983713  0.77513328     0.19100
H1360       H  0.15349912  0.73619521  0.89543028     0.19100
C1361       C  0.47737456  0.88411528  0.53118287    -0.06700
C1362       C  0.45740397  0.86236903  0.51046137    -0.17900
C1363       C  0.44477887  0.83070111  0.52301365     0.10500
C1364       C  0.45367325  0.81944444  0.55742842    -0.06700
C1365       C  0.46844014  0.84475850  0.57890663    -0.17900
C1366       C  0.48249656  0.87496407  0.56603595     0.10500
S1367       S  0.41903142  0.80682187  0.49242274    -0.32900
S1368       S  0.50847957  0.89963334  0.59546870    -0.32900
H1369       H  0.53330955  0.90874751  0.56997763     0.28500
H1370       H  0.40485539  0.78233614  0.51481728     0.28500
H1371       H  0.45390199  0.86988355  0.98471856     0.19100
H1372       H  0.47111762  0.84056846  0.60616408     0.19100
C1373       C  0.32723009  0.94348537  0.95139497    -0.06700
C1374       C  0.33189605  0.97515226  0.96994921    -0.17900
C1375       C  0.36253594  0.98434609  0.98548319     0.10500
C1376       C  0.39101115  0.96224516  0.98174707    -0.06700
C1377       C  0.38656866  0.92931726  0.96766725    -0.17900
C1378       C  0.35537215  0.91883682  0.95313463     0.10500
S1379       S  0.36394880  0.52602036  0.00754796    -0.32900
S1380       S  0.35924290  0.87607480  0.93439540    -0.32900
H1381       H  0.32579868  0.86414572  0.93902683     0.28500
H1382       H  0.39850209  0.53373646  0.99984894     0.28500
H1383       H  0.31207453  0.99494244  0.97000254     0.19100
H1384       H  0.40873154  0.91197942  0.96630057     0.19100
C1385       C  0.09159654  0.97863773  0.51914126    -0.06700
C1386       C  0.10379163  0.00116896  0.54419980    -0.17900
C1387       C  0.13744008  0.99898946  0.55685397     0.10500
C1388       C  0.16063591  0.97162285  0.54524408    -0.06700
C1389       C  0.14835102  0.95066264  0.51786756    -0.17900
C1390       C  0.11444225  0.95308965  0.50563425     0.10500
S1391       S  0.14778428  0.53241664  0.58691812    -0.32900
S1392       S  0.10184265  0.91929536  0.97682095    -0.32900
H1393       H  0.07090916  0.91204594  0.99507643     0.28500
H1394       H  0.12656914  0.55776001  0.57185796     0.28500
H1395       H  0.08639663  0.51977058  0.55533662     0.19100
H1396       H  0.16550418  0.92859916  0.00854943     0.19100
C1397       C  0.48432152  0.57826135  0.96363610    -0.06700
C1398       C  0.50967076  0.60217898  0.97175298    -0.17900
C1399       C  0.50526100  0.63749081  0.96477652     0.10500
C1400       C  0.47320517  0.65018939  0.95127899    -0.06700
C1401       C  0.44811730  0.62544183  0.94261449    -0.17900
C1402       C  0.45370629  0.59003734  0.94787042     0.10500
S1403       S  0.04115944  0.66646955  0.47658718    -0.32900
S1404       S  0.42043140  0.56124382  0.93402309    -0.32900
H1405       H  0.44293698  0.53440382  0.92353135     0.28500
H1406       H  0.06198673  0.64341554  0.99047894     0.28500
H1407       H  0.03268599  0.59370747  0.48665353     0.19100
H1408       H  0.42442555  0.63321498  0.93028784     0.19100
O1409       O  0.53213284  0.49204084  0.03288595    -0.72400
O1410       O  0.93562010  0.48682799  0.01697596    -0.72600
O1411       O  0.98260555  0.44479076  0.04164655    -0.72500
O1412       O  0.98302335  0.03477664  0.00858475    -0.72500
O1413       O  0.99657313  0.01915731  0.45547819    -0.72400
O1414       O  0.99349910  0.42479750  0.48760743    -0.72400
O1415       O  0.94874696  0.46904172  0.46275701    -0.72400
O1416       O  0.54357512  0.47272955  0.47970730    -0.72600
V1417       V  0.98378807  0.49023902  0.02471249     1.35200
V1418       V  0.99587348  0.47164883  0.47276209     1.35200
C1419       C  0.55439036  0.48047910  0.01104315     0.76900
C1420       C  0.92664904  0.47362353  0.48690196     0.76900
C1421       C  0.98548446  0.41972936  0.02073808     0.76800
C1422       C  0.98793590  0.04369125  0.47590608     0.76700
O1423       O  0.75682406  0.28890240  0.40077409    -0.68000
O1424       O  0.76613256  0.19165261  0.39740676    -0.72600
O1425       O  0.80671166  0.24338194  0.41436289    -0.72500
O1426       O  0.71460783  0.23716160  0.38373047    -0.72500
O1427       O  0.73153197  0.24220306  0.33002931    -0.72400
O1428       O  0.82539736  0.24449909  0.36090480    -0.72400
O1429       O  0.78259999  0.19541857  0.34313517    -0.72400
O1430       O  0.77679464  0.29258590  0.34774809    -0.72600
V1431       V  0.76113063  0.24045200  0.39788852     1.35200
V1432       V  0.77843854  0.24373152  0.34632740     1.35200
C1433       C  0.76745314  0.30730594  0.37576789     0.76900
C1434       C  0.77822641  0.17743528  0.37010960     0.76900
C1435       C  0.83199171  0.24281677  0.39307155     0.76800
C1436       C  0.70675570  0.23890004  0.35193342     0.76700
C1437       C  0.69901311  0.46290796  0.05859038    -0.03100
C1438       C  0.72569141  0.05542216  0.18045843    -0.03100
C1439       C  0.79314956  0.44469410  0.42920542    -0.03100
C1440       C  0.80780515  0.04526055  0.31200111    -0.03100
O1441       O  0.50467658  0.49255885  0.20209824    -0.72400
O1442       O  0.51080933  0.09012841  0.22271342    -0.72600
O1443       O  0.55337946  0.04250278  0.19477722    -0.72500
O1444       O  0.96131490  0.04082959  0.22839650    -0.72500
O1445       O  0.47657327  0.02630769  0.27845456    -0.72400
O1446       O  0.57015421  0.03190183  0.24722570    -0.72400
O1447       O  0.52538738  0.07619200  0.27513358    -0.72400
O1448       O  0.52459231  0.48168440  0.25330583    -0.72600
V1449       V  0.50741160  0.04153366  0.21211230     1.35200
V1450       V  0.52345755  0.02904685  0.26201431     1.35200
C1451       C  0.51638490  0.47066221  0.22364569     0.76900
C1452       C  0.52119010  0.09932632  0.25255960     0.76900
C1453       C  0.57765012  0.03888501  0.21581311     0.76800
C1454       C  0.95360808  0.03339237  0.25954670     0.76700
O1455       O  0.75371373  0.22769954  0.17449401    -0.72400
O1456       O  0.74204403  0.31901938  0.14072164    -0.72600
O1457       O  0.70162095  0.27519036  0.17373007    -0.72500
O1458       O  0.79488648  0.27317376  0.14171800    -0.72500
O1459       O  0.77918666  0.25259589  0.09182178    -0.72400
O1460       O  0.68491551  0.25571215  0.12376178    -0.72400
O1461       O  0.72614714  0.29855305  0.09084493    -0.72400
O1462       O  0.73683704  0.20800402  0.12464271    -0.72600
V1463       V  0.74792326  0.27315886  0.15671333     1.35200
V1464       V  0.73230283  0.25382620  0.10877215     1.35200
C1465       C  0.74648503  0.20233534  0.15528395     0.76900
C1466       C  0.73012668  0.32403453  0.11068011     0.76900
C1467       C  0.67734226  0.26844621  0.15339957     0.76800
C1468       C  0.80292486  0.26336967  0.11124870     0.76700
C1469       C  0.55451096  0.23317864  0.32006163    -0.03100
C1470       C  0.96717782  0.19090845  0.44323359    -0.03100
C1471       C  0.53857281  0.31939799  0.19666383    -0.03100
C1472       C  0.95146750  0.28070962  0.07230467    -0.03100
C1473       C  0.97518199  0.27729327  0.10591178    -0.06700
C1474       C  0.96178863  0.27821355  0.14084555    -0.17900
C1475       C  0.98369603  0.28146159  0.16976575     0.10500
C1476       C  0.51568343  0.30144036  0.16710892    -0.06700
C1477       C  0.52837265  0.30161886  0.13171428    -0.17900
C1478       C  0.01118456  0.28262162  0.10385811     0.10500
S1479       S  0.97425210  0.25168546  0.20422368    -0.32900
S1480       S  0.03985925  0.25247369  0.08191743    -0.32900
H1481       H  0.01531634  0.22623516  0.07922295     0.28500
H1482       H  0.00890297  0.24259639  0.20972127     0.28500
H1483       H  0.93481444  0.27485129  0.14689757     0.19100
H1484       H  0.55311122  0.31234176  0.12472952     0.19100
C1485       C  0.97143591  0.20904644  0.98121719    -0.06700
C1486       C  0.99223151  0.23856551  0.98524186    -0.17900
C1487       C  0.98970419  0.26047781  0.01512452     0.10500
C1488       C  0.96319895  0.25471008  0.04162688    -0.06700
C1489       C  0.94504815  0.22380276  0.03701590    -0.17900
C1490       C  0.95456106  0.19900261  0.01255906     0.10500
S1491       S  0.01938709  0.29637296  0.01564006    -0.32900
S1492       S  0.96114387  0.15752355  0.03312200    -0.32900
H1493       H  0.94106369  0.13683299  0.01195803     0.28500
H1494       H  0.04421583  0.28258771  0.99208434     0.28500
H1495       H  0.01078647  0.24707248  0.46441672     0.19100
H1496       H  0.92455768  0.21588576  0.05371108     0.19100
C1497       C  0.53304043  0.22626871  0.35412254    -0.06700
C1498       C  0.53497815  0.19215990  0.36630525    -0.17900
C1499       C  0.51200681  0.17907720  0.39089283     0.10500
C1500       C  0.49370942  0.20207326  0.41436928    -0.06700
C1501       C  0.49461053  0.23751070  0.40457535    -0.17900
C1502       C  0.51247109  0.24959549  0.37467559     0.10500
S1503       S  0.50274329  0.13392210  0.38355452    -0.32900
S1504       S  0.51169512  0.29545825  0.36868264    -0.32900
H1505       H  0.54781551  0.29743020  0.36659912     0.28500
H1506       H  0.51617313  0.13066059  0.34933511     0.28500
H1507       H  0.55261875  0.17409095  0.35363691     0.19100
H1508       H  0.97875454  0.25619794  0.41730969     0.19100
C1509       C  0.54572917  0.26782928  0.29959347    -0.06700
C1510       C  0.51263682  0.27687165  0.28683508    -0.17900
C1511       C  0.50874614  0.29847549  0.25734533     0.10500
C1512       C  0.53802086  0.30504509  0.23562535    -0.06700
C1513       C  0.56943284  0.30449005  0.25460713    -0.17900
C1514       C  0.57158401  0.29077821  0.28806961     0.10500
S1515       S  0.96882901  0.31920894  0.25243662    -0.32900
S1516       S  0.60130123  0.31052940  0.31792833    -0.32900
H1517       H  0.62048824  0.32911160  0.29302650     0.28500
H1518       H  0.98389852  0.35185606  0.25472820     0.28500
H1519       H  0.48997526  0.27161152  0.30224561     0.19100
H1520       H  0.59263051  0.31606539  0.24432207     0.19100
C1521       C  0.57617948  0.30889059  0.18314048    -0.06700
C1522       C  0.58333983  0.27286107  0.18284943    -0.17900
C1523       C  0.61443992  0.25865659  0.17049848     0.10500
C1524       C  0.64190630  0.28057188  0.16231808    -0.06700
C1525       C  0.63562149  0.31627312  0.16200154    -0.17900
C1526       C  0.60245687  0.33043702  0.16878356     0.10500
S1527       S  0.61621679  0.21261801  0.16530878    -0.32900
S1528       S  0.59373895  0.37295346  0.15168199    -0.32900
H1529       H  0.62734265  0.38027630  0.13951719     0.28500
H1530       H  0.64112193  0.21171468  0.13832650     0.28500
H1531       H  0.56345019  0.25519891  0.19106366     0.19100
H1532       H  0.65647186  0.33294888  0.15389215     0.19100
C1533       C  0.83923092  0.26588759  0.09888641    -0.06700
C1534       C  0.86353066  0.24191886  0.11034247    -0.17900
C1535       C  0.89911083  0.24517122  0.10298477     0.10500
C1536       C  0.91194887  0.27463848  0.08363346    -0.06700
C1537       C  0.88626682  0.29956218  0.07478212    -0.17900
C1538       C  0.85085517  0.29480437  0.08065307     0.10500
S1539       S  0.92477048  0.21009011  0.12121051    -0.32900
S1540       S  0.82163792  0.32772226  0.06541313    -0.32900
H1541       H  0.79544670  0.30509728  0.05564742     0.28500
H1542       H  0.95647069  0.21515768  0.10412890     0.28500
H1543       H  0.85456253  0.22025707  0.12561796     0.19100
H1544       H  0.89277093  0.32332741  0.06214213     0.19100
C1545       C  0.54534448  0.20110861  0.29498698    -0.06700
C1546       C  0.57126717  0.17629632  0.28559823    -0.17900
C1547       C  0.56422119  0.14470977  0.26959323     0.10500
C1548       C  0.53019755  0.13569891  0.26137559    -0.06700
C1549       C  0.50402827  0.15955310  0.26895189    -0.17900
C1550       C  0.51045899  0.19078755  0.28670779     0.10500
S1551       S  0.60014801  0.11562722  0.26241826    -0.32900
S1552       S  0.97374237  0.20913706  0.30536805    -0.32900
H1553       H  0.44920128  0.20042369  0.27932689     0.28500
H1554       H  0.58921534  0.10717696  0.22904888     0.28500
H1555       H  0.59749397  0.17867525  0.29357401     0.19100
H1556       H  0.97957276  0.15124840  0.26396657     0.19100
C1557       C  0.52219868  0.43319487  0.21469862    -0.06700
C1558       C  0.49768551  0.41483658  0.19615038    -0.17900
C1559       C  0.50100402  0.37887890  0.18969779     0.10500
C1560       C  0.53119242  0.35981056  0.20066384    -0.06700
C1561       C  0.55494246  0.37926690  0.22017915    -0.17900
C1562       C  0.55147356  0.41480932  0.22626045     0.10500
S1563       S  0.96215929  0.35834389  0.17351380    -0.32900
S1564       S  0.58704078  0.43560313  0.24710745    -0.32900
H1565       H  0.58678372  0.46400961  0.22456814     0.28500
H1566       H  0.94802065  0.38756882  0.15733011     0.28500
H1567       H  0.97516410  0.42778338  0.18733067     0.19100
H1568       H  0.57827925  0.36732119  0.22920801     0.19100
C1569       C  0.84632371  0.04209355  0.29624843    -0.06700
C1570       C  0.86614656  0.01127337  0.30072001    -0.17900
C1571       C  0.90078389  0.00779737  0.28963192     0.10500
C1572       C  0.91685260  0.03483101  0.27162884    -0.06700
C1573       C  0.89695916  0.06391690  0.26349579    -0.17900
C1574       C  0.86219620  0.06772358  0.27467305     0.10500
S1575       S  0.92277965  0.46863138  0.29802208    -0.32900
S1576       S  0.83943409  0.10585886  0.26062841    -0.32900
H1577       H  0.86596641  0.12035428  0.24014630     0.28500
H1578       H  0.94249296  0.46771012  0.26687358     0.28500
H1579       H  0.85481101  0.48970624  0.31177538     0.19100
H1580       H  0.90909753  0.08409418  0.24843406     0.19100
C1581       C  0.79653958  0.47285247  0.39953972    -0.06700
C1582       C  0.77070142  0.47458342  0.37388914    -0.17900
C1583       C  0.77550246  0.49217882  0.34199412     0.10500
C1584       C  0.80227780  0.01622438  0.33991209    -0.06700
C1585       C  0.82562335  0.51782909  0.36619292    -0.17900
C1586       C  0.82684346  0.49268495  0.39141776     0.10500
S1587       S  0.74620995  0.98182001  0.30931351    -0.32900
S1588       S  0.87142126  0.48283218  0.40059174    -0.32900
H1589       H  0.86998937  0.44984393  0.38566284     0.28500
H1590       H  0.73499132  0.94998842  0.32241662     0.28500
H1591       H  0.74831532  0.45868383  0.37662481     0.19100
H1592       H  0.84762530  0.03442577  0.36555072     0.19100
C1593       C  0.73333683  0.09486009  0.17439382    -0.06700
C1594       C  0.70872455  0.12018982  0.18565547    -0.17900
C1595       C  0.71529571  0.15516044  0.18456212     0.10500
C1596       C  0.74556592  0.16693380  0.16859166    -0.06700
C1597       C  0.77171905  0.14312862  0.15986288    -0.17900
C1598       C  0.76700204  0.10755622  0.16539946     0.10500
S1599       S  0.68453631  0.18360444  0.20565256    -0.32900
S1600       S  0.80381398  0.07922824  0.15859968    -0.32900
H1601       H  0.82909232  0.10494462  0.15709218     0.28500
H1602       H  0.70939128  0.20705651  0.21656179     0.28500
H1603       H  0.68492181  0.11346678  0.19880169     0.19100
H1604       H  0.79566589  0.15238908  0.14849165     0.19100
C1605       C  0.74780847  0.04735967  0.21348627    -0.06700
C1606       C  0.73953264  0.06916298  0.24188177    -0.17900
C1607       C  0.76068710  0.07338440  0.26996911     0.10500
C1608       C  0.78409490  0.04612184  0.27910966    -0.06700
C1609       C  0.78962388  0.02050143  0.25287381    -0.17900
C1610       C  0.77428504  0.02214205  0.21960440     0.10500
S1611       S  0.75905621  0.11739864  0.28628416    -0.32900
S1612       S  0.78809543  0.48935048  0.18828033    -0.32900
H1613       H  0.79188470  0.01035374  0.16014685     0.28500
H1614       H  0.74837394  0.13357845  0.25547499     0.28500
H1615       H  0.71759937  0.08642747  0.24067291     0.19100
H1616       H  0.80783333  0.99976218  0.25766025     0.19100
C1617       C  0.68629218  0.04964879  0.19057193    -0.06700
C1618       C  0.66108537  0.06340890  0.16810027    -0.17900
C1619       C  0.62557541  0.06126858  0.17539551     0.10500
C1620       C  0.61411491  0.04260068  0.20482095    -0.06700
C1621       C  0.63841591  0.02639330  0.22545894    -0.17900
C1622       C  0.67361288  0.02791317  0.21813578     0.10500
S1623       S  0.59701304  0.08423158  0.14675999    -0.32900
S1624       S  0.69898193  0.99759837  0.24268773    -0.32900
H1625       H  0.67290115  0.97350559  0.24977535     0.28500
H1626       H  0.57515917  0.09805999  0.17293333     0.28500
H1627       H  0.66940806  0.07777442  0.14540046     0.19100
H1628       H  0.62962479  0.01119979  0.24741748     0.19100
C1629       C  0.72285127  0.46216842  0.52192533    -0.06700
C1630       C  0.73926937  0.43057450  0.51259030    -0.17900
C1631       C  0.76345077  0.42644664  0.48641084     0.10500
C1632       C  0.76638080  0.45134540  0.45970678    -0.06700
C1633       C  0.74680514  0.48210364  0.46466486    -0.17900
C1634       C  0.72573893  0.48812091  0.49519665     0.10500
S1635       S  0.78746302  0.38621925  0.48773886    -0.32900
S1636       S  0.70286745  0.02860434  0.49554905    -0.32900
H1637       H  0.68977236  0.02966109  0.02990002     0.28500
H1638       H  0.78654009  0.38259193  0.52421076     0.28500
H1639       H  0.73312768  0.40651569  0.52465974     0.19100
H1640       H  0.74829383  0.50185662  0.44492337     0.19100
C1641       C  0.70983345  0.98883872  0.08905636    -0.06700
C1642       C  0.73036303  0.01811285  0.08367850    -0.17900
C1643       C  0.73515840  0.04244772  0.11076859     0.10500
C1644       C  0.73024383  0.03220415  0.14670288    -0.06700
C1645       C  0.71846706  0.99843480  0.15111970    -0.17900
C1646       C  0.70104284  0.48072492  0.12451304     0.10500
S1647       S  0.74226960  0.08583960  0.09587713    -0.32900
S1648       S  0.66858411  0.45112272  0.14073723    -0.32900
H1649       H  0.64603007  0.45416667  0.11290204     0.28500
H1650       H  0.73069140  0.08147358  0.06163841     0.28500
H1651       H  0.73975676  0.02399746  0.05786555     0.19100
H1652       H  0.71485992  0.48821603  0.17643928     0.19100
C1653       C  0.70522405  0.42675621  0.07630210    -0.06700
C1654       C  0.68038605  0.40031186  0.07482455    -0.17900
C1655       C  0.68838432  0.36633008  0.08421152     0.10500
C1656       C  0.72050503  0.35877713  0.09928963    -0.06700
C1657       C  0.74410942  0.38482959  0.10410459    -0.17900
C1658       C  0.73812934  0.41783836  0.09160702     0.10500
S1659       S  0.65713692  0.33291129  0.07694648    -0.32900
S1660       S  0.77521624  0.44566135  0.09594265    -0.32900
H1661       H  0.77409029  0.46191183  0.06363045     0.28500
H1662       H  0.63334818  0.35298325  0.05834915     0.28500
H1663       H  0.65471391  0.40551126  0.06593674     0.19100
H1664       H  0.76870446  0.37875117  0.11585210     0.19100
C1665       C  0.86746112  0.23510262  0.40598826    -0.06700
C1666       C  0.86977966  0.22147641  0.43963498    -0.17900
C1667       C  0.89852582  0.20208544  0.45027465     0.10500
C1668       C  0.92946759  0.20055143  0.42927920    -0.06700
C1669       C  0.92534679  0.21244916  0.39449603    -0.17900
C1670       C  0.89641304  0.23120824  0.38357255     0.10500
S1671       S  0.88812406  0.17098381  0.48320741    -0.32900
S1672       S  0.89805417  0.24875385  0.34023773    -0.32900
H1673       H  0.88155520  0.27972483  0.35015435     0.28500
H1674       H  0.86659374  0.19303667  0.50340212     0.28500
H1675       H  0.84683468  0.22156558  0.45621692     0.19100
H1676       H  0.94494323  0.20754901  0.37478500     0.19100
C1677       C  0.78839692  0.14104623  0.36903874    -0.06700
C1678       C  0.76289342  0.11625308  0.37004345    -0.17900
C1679       C  0.76869258  0.08420084  0.35390538     0.10500
C1680       C  0.80121358  0.07740997  0.33579279    -0.06700
C1681       C  0.82847066  0.09970891  0.34320710    -0.17900
C1682       C  0.82215788  0.13145200  0.35872703     0.10500
S1683       S  0.73112049  0.05735691  0.35044304    -0.32900
S1684       S  0.85819752  0.15906924  0.36428954    -0.32900
H1685       H  0.84613688  0.16892261  0.39760790     0.28500
H1686       H  0.71320384  0.07054544  0.37990628     0.28500
H1687       H  0.73713089  0.12358851  0.37904895     0.19100
H1688       H  0.85489590  0.09341909  0.33608018     0.19100
C1689       C  0.77006838  0.34484447  0.38082361    -0.06700
C1690       C  0.74509167  0.36057080  0.40210037    -0.17900
C1691       C  0.74879398  0.39412041  0.41404223     0.10500
C1692       C  0.78174292  0.41102971  0.40957653    -0.06700
C1693       C  0.80277357  0.39795077  0.38199134    -0.17900
C1694       C  0.79788239  0.36481404  0.36824863     0.10500
S1695       S  0.70826644  0.41217977  0.43085971    -0.32900
S1696       S  0.83005630  0.34834007  0.33798668    -0.32900
H1697       H  0.83626171  0.31880667  0.35795614     0.28500
H1698       H  0.71188836  0.44527927  0.41729122     0.28500
H1699       H  0.72181537  0.34661231  0.40892626     0.19100
H1700       H  0.82510865  0.41224860  0.37329602     0.19100
C1701       C  0.59488497  0.23320631  0.33007607    -0.06700
C1702       C  0.62024582  0.23514220  0.30257186    -0.17900
C1703       C  0.65599354  0.23902607  0.30826386     0.10500
C1704       C  0.66906478  0.23701294  0.34227493    -0.06700
C1705       C  0.64487364  0.23383133  0.36955379    -0.17900
C1706       C  0.60897250  0.23458800  0.36479925     0.10500
S1707       S  0.68278323  0.24955650  0.27125664    -0.32900
S1708       S  0.58507339  0.24054845  0.40551104    -0.32900
H1709       H  0.61014277  0.25950022  0.42321014     0.28500
H1710       H  0.69733263  0.27830862  0.28759140     0.28500
H1711       H  0.61168834  0.23576418  0.27588059     0.19100
H1712       H  0.65415561  0.23242334  0.39592013     0.19100
C1713       C  0.97744294  0.38459995  0.03295789    -0.06700
C1714       C  0.95895720  0.36229855  0.01151398    -0.17900
C1715       C  0.94732302  0.33003552  0.02334107     0.10500
C1716       C  0.95551756  0.31876322  0.05800009    -0.06700
C1717       C  0.96966279  0.34418272  0.07990576    -0.17900
C1718       C  0.98268926  0.37509992  0.06763912     0.10500
S1719       S  0.92335199  0.30581209  0.99150405    -0.32900
S1720       S  0.00762328  0.40033943  0.09751424    -0.32900
H1721       H  0.03209182  0.41088297  0.07226589     0.28500
H1722       H  0.90812932  0.28134252  0.01320266     0.28500
H1723       H  0.95009831  0.37039133  0.48579045     0.19100
H1724       H  0.97246933  0.33975283  0.10711784     0.19100
C1725       C  0.82764903  0.44490036  0.45031541    -0.06700
C1726       C  0.83195293  0.47557046  0.47072881    -0.17900
C1727       C  0.86272567  0.48434260  0.48625571     0.10500
C1728       C  0.89127442  0.46261956  0.48123732    -0.06700
C1729       C  0.88703101  0.43029661  0.46573612    -0.17900
C1730       C  0.85597419  0.42046017  0.45062384     0.10500
S1731       S  0.86380317  0.02645645  0.50861956    -0.32900
S1732       S  0.86002417  0.37909520  0.42910122    -0.32900
H1733       H  0.82746569  0.36592654  0.43666931     0.28500
H1734       H  0.89814195  0.03457580  0.50026699     0.28500
H1735       H  0.81199037  0.49523064  0.47183664     0.19100
H1736       H  0.90931726  0.41321205  0.46332883     0.19100
C1737       C  0.59131169  0.47684097  0.02086957    -0.06700
C1738       C  0.60341236  0.49881682  0.04646937    -0.17900
C1739       C  0.63711787  0.49651040  0.05897650     0.10500
C1740       C  0.66049385  0.46962817  0.04672788    -0.06700
C1741       C  0.64806417  0.44881087  0.01930326    -0.17900
C1742       C  0.61417281  0.45144478  0.00706584     0.10500
S1743       S  0.64765432  0.03141834  0.08950036    -0.32900
S1744       S  0.60130892  0.42148059  0.47210655    -0.32900
H1745       H  0.57027237  0.41317745  0.48966217     0.28500
H1746       H  0.62683226  0.05724289  0.07471353     0.28500
H1747       H  0.58642759  0.01963000  0.05727975     0.19100
H1748       H  0.66453262  0.42899153  0.50571861     0.19100
C1749       C  0.98361766  0.07976441  0.46360305    -0.06700
C1750       C  0.00886333  0.10371928  0.47200426    -0.17900
C1751       C  0.00459607  0.13906989  0.46497617     0.10500
C1752       C  0.97297871  0.15175803  0.45045282    -0.06700
C1753       C  0.94802424  0.12701340  0.44149494    -0.17900
C1754       C  0.95322512  0.09161493  0.44735732     0.10500
S1755       S  0.54041668  0.16616638  0.97327386    -0.32900
S1756       S  0.91953537  0.06310154  0.43385207    -0.32900
H1757       H  0.94124503  0.03495279  0.42562116     0.28500
H1758       H  0.56637844  0.14085701  0.47761654     0.28500
H1759       H  0.53227071  0.09344410  0.98347370     0.19100
H1760       H  0.92471202  0.13480866  0.42848311     0.19100
O1761       O  0.53250335  0.49286527  0.53150941    -0.72400
O1762       O  0.93629085  0.48531645  0.51581026    -0.72600
O1763       O  0.98376045  0.44371904  0.54017895    -0.72500
O1764       O  0.98260310  0.03677625  0.50766051    -0.72500
O1765       O  0.99715725  0.01766011  0.95628446    -0.72400
O1766       O  0.99308967  0.42593399  0.98919887    -0.72400
O1767       O  0.94836402  0.47023153  0.96410422    -0.72400
O1768       O  0.54404385  0.47155314  0.98138785    -0.72600
V1769       V  0.98444853  0.48910913  0.52316810     1.35200
V1770       V  0.99549906  0.47271216  0.97439566     1.35200
C1771       C  0.55440744  0.48137266  0.50925547     0.76900
C1772       C  0.92606138  0.47517625  0.98801577     0.76900
C1773       C  0.98621821  0.41865822  0.51925643     0.76800
C1774       C  0.98815910  0.04196136  0.97687259     0.76700
O1775       O  0.75592105  0.28887530  0.90273336    -0.68000
O1776       O  0.76491723  0.19154514  0.89748300    -0.72600
O1777       O  0.80546834  0.24269990  0.91588999    -0.72500
O1778       O  0.71351821  0.23746697  0.88469082    -0.72500
O1779       O  0.73063112  0.24316726  0.83113108    -0.72400
O1780       O  0.82449801  0.24487879  0.86259520    -0.72400
O1781       O  0.78173984  0.19642064  0.84341835    -0.72400
O1782       O  0.77590181  0.29318345  0.84974959    -0.72600
V1783       V  0.76000922  0.24036921  0.89903195     1.35200
V1784       V  0.77755036  0.24449869  0.84761479     1.35200
C1785       C  0.76660396  0.30753830  0.87792162     0.76900
C1786       C  0.77727280  0.17792415  0.86995415     0.76900
C1787       C  0.83087376  0.24226210  0.89478866     0.76800
C1788       C  0.70576840  0.23939571  0.85289210     0.76700
C1789       C  0.69887891  0.46242007  0.55665498    -0.03100
C1790       C  0.72252965  0.05440222  0.68079956    -0.03100
C1791       C  0.79221978  0.44499303  0.93066156    -0.03100
C1792       C  0.80440768  0.04460588  0.81231824    -0.03100
O1793       O  0.50313888  0.49047225  0.70182212    -0.72400
O1794       O  0.50837732  0.08819540  0.72391594    -0.72600
O1795       O  0.55044008  0.04006686  0.69633682    -0.72500
O1796       O  0.95807788  0.03996838  0.72930991    -0.72500
O1797       O  0.47425646  0.02634152  0.78098852    -0.72400
O1798       O  0.56765693  0.02896639  0.74851549    -0.72400
O1799       O  0.52434044  0.07480758  0.77605987    -0.72400
O1800       O  0.52168860  0.47981772  0.75360470    -0.72600
V1801       V  0.50467694  0.03952959  0.71401315     1.35200
V1802       V  0.52103032  0.02759025  0.76396496     1.35200
C1803       C  0.51416485  0.46865938  0.72382136     0.76900
C1804       C  0.51977136  0.09763611  0.75327583     0.76900
C1805       C  0.57489547  0.03589089  0.71701909     0.76800
C1806       C  0.95002694  0.03285363  0.76042843     0.76700
O1807       O  0.75005234  0.22724451  0.67424149    -0.72400
O1808       O  0.74151903  0.31870903  0.63949059    -0.72600
O1809       O  0.69938262  0.27608884  0.67161449    -0.72500
O1810       O  0.79346705  0.27182175  0.64226850    -0.72500
O1811       O  0.77859464  0.25281294  0.59149440    -0.72400
O1812       O  0.68362254  0.25498863  0.62200582    -0.72400
O1813       O  0.72495453  0.29822188  0.58986856    -0.72400
O1814       O  0.73564998  0.20759086  0.62355113    -0.72600
V1815       V  0.74602356  0.27281409  0.65595189     1.35200
V1816       V  0.73128423  0.25349895  0.60772613     1.35200
C1817       C  0.74329589  0.20187181  0.65478473     0.76900
C1818       C  0.72923789  0.32372741  0.60958688     0.76900
C1819       C  0.67548786  0.26869887  0.65107066     0.76800
C1820       C  0.80208598  0.26295502  0.61164226     0.76700
C1821       C  0.55364172  0.23122202  0.82015248    -0.03100
C1822       C  0.96597433  0.18929477  0.94512506    -0.03100
C1823       C  0.53662381  0.31770142  0.69590166    -0.03100
C1824       C  0.95119525  0.28060675  0.57228328    -0.03100
C1825       C  0.97513614  0.27659877  0.60571754    -0.06700
C1826       C  0.96176951  0.27596226  0.64065164    -0.17900
C1827       C  0.98343372  0.27931283  0.66974022     0.10500
C1828       C  0.51353580  0.30093980  0.66599538    -0.06700
C1829       C  0.52529141  0.30415512  0.63049840    -0.17900
C1830       C  0.01110300  0.28255579  0.60393933     0.10500
S1831       S  0.97437777  0.24900703  0.70388394    -0.32900
S1832       S  0.04051311  0.25508800  0.57956530    -0.32900
H1833       H  0.01707379  0.22793720  0.57618836     0.28500
H1834       H  0.00908943  0.24097582  0.71025584     0.28500
H1835       H  0.93498492  0.27137383  0.64658159     0.19100
H1836       H  0.54931191  0.31658877  0.62392352     0.19100
C1837       C  0.97182687  0.21046320  0.47963375    -0.06700
C1838       C  0.99182412  0.24043889  0.48392905    -0.17900
C1839       C  0.98901013  0.26199625  0.51402458     0.10500
C1840       C  0.96298499  0.25533067  0.54086814    -0.06700
C1841       C  0.94539973  0.22421354  0.53592470    -0.17900
C1842       C  0.95501992  0.19983559  0.51091440     0.10500
S1843       S  0.01792790  0.29853494  0.51417113    -0.32900
S1844       S  0.95419655  0.15550311  0.52605234    -0.32900
H1845       H  0.93320541  0.16048441  0.55596116     0.28500
H1846       H  0.04355657  0.28459947  0.49158580     0.28500
H1847       H  0.01132536  0.24462170  0.96561992     0.19100
H1848       H  0.92413327  0.21678365  0.55167902     0.19100
C1849       C  0.53178152  0.22459259  0.85411013    -0.06700
C1850       C  0.53307250  0.19049435  0.86643107    -0.17900
C1851       C  0.51016701  0.17794165  0.89140402     0.10500
C1852       C  0.49226761  0.20133874  0.91482907    -0.06700
C1853       C  0.49322927  0.23659610  0.90440696    -0.17900
C1854       C  0.51147415  0.24827150  0.87451103     0.10500
S1855       S  0.50070710  0.13273233  0.88473138    -0.32900
S1856       S  0.51189456  0.29412570  0.86852381    -0.32900
H1857       H  0.54803104  0.29514337  0.86550596     0.28500
H1858       H  0.51032252  0.13048351  0.84921594     0.28500
H1859       H  0.55028637  0.17198436  0.85382516     0.19100
H1860       H  0.97719917  0.25444412  0.91936592     0.19100
C1861       C  0.54495010  0.26556446  0.79904159    -0.06700
C1862       C  0.51177059  0.27483808  0.78663027    -0.17900
C1863       C  0.50760047  0.29598830  0.75679385     0.10500
C1864       C  0.53659900  0.30213243  0.73444111    -0.06700
C1865       C  0.56845189  0.30072755  0.75269433    -0.17900
C1866       C  0.57095358  0.28774319  0.78643351     0.10500
S1867       S  0.96621300  0.31704060  0.75126636    -0.32900
S1868       S  0.60080653  0.30840335  0.81552512    -0.32900
H1869       H  0.61711453  0.32953221  0.79067482     0.28500
H1870       H  0.98048400  0.35000363  0.75412633     0.28500
H1871       H  0.48928562  0.27003799  0.80250166     0.19100
H1872       H  0.59163583  0.31202011  0.74199939     0.19100
C1873       C  0.57404869  0.30783355  0.68142782    -0.06700
C1874       C  0.58106888  0.27185499  0.67868256    -0.17900
C1875       C  0.61207975  0.25849922  0.66515032     0.10500
C1876       C  0.63984071  0.28067311  0.65941317    -0.06700
C1877       C  0.63372395  0.31635481  0.66160380    -0.17900
C1878       C  0.60045909  0.33014844  0.66867303     0.10500
S1879       S  0.61360099  0.21340904  0.65461406    -0.32900
S1880       S  0.59195594  0.37357033  0.65394027    -0.32900
H1881       H  0.62541956  0.38097597  0.64142197     0.28500
H1882       H  0.63183590  0.21752890  0.62298605     0.28500
H1883       H  0.56108633  0.25373687  0.68545205     0.19100
H1884       H  0.65475488  0.33345006  0.65507070     0.19100
C1885       C  0.83870017  0.26618084  0.59983024    -0.06700
C1886       C  0.86267083  0.24063156  0.60841731    -0.17900
C1887       C  0.89840253  0.24408449  0.60156238     0.10500
C1888       C  0.91165063  0.27454150  0.58413739    -0.06700
C1889       C  0.88649194  0.30102926  0.57876013    -0.17900
C1890       C  0.85103650  0.29685226  0.58527149     0.10500
S1891       S  0.92381090  0.20811608  0.61838065    -0.32900
S1892       S  0.82279848  0.33270218  0.57566758    -0.32900
H1893       H  0.79504119  0.31268641  0.56461465     0.28500
H1894       H  0.95600675  0.21455954  0.60283600     0.28500
H1895       H  0.85340481  0.21776088  0.62152422     0.19100
H1896       H  0.89350858  0.32586319  0.56873380     0.19100
C1897       C  0.54464214  0.19905499  0.79523955    -0.06700
C1898       C  0.57043252  0.17387187  0.78655633    -0.17900
C1899       C  0.56326711  0.14239635  0.77038642     0.10500
C1900       C  0.52928929  0.13394615  0.76142492    -0.06700
C1901       C  0.50335944  0.15824665  0.76813557    -0.17900
C1902       C  0.50981424  0.18923307  0.78622553     0.10500
S1903       S  0.59885209  0.11273736  0.76380725    -0.32900
S1904       S  0.97087704  0.20825746  0.80496814    -0.32900
H1905       H  0.44899949  0.20003116  0.77779000     0.28500
H1906       H  0.58815045  0.10404247  0.73034600     0.28500
H1907       H  0.59646219  0.17589650  0.79529144     0.19100
H1908       H  0.97711209  0.15047944  0.76371833     0.19100
C1909       C  0.51993318  0.43112385  0.71528669    -0.06700
C1910       C  0.49613505  0.41315273  0.69548030    -0.17900
C1911       C  0.49918441  0.37718105  0.68929942     0.10500
C1912       C  0.52891474  0.35788041  0.70101435    -0.06700
C1913       C  0.55185947  0.37683193  0.72192550    -0.17900
C1914       C  0.54824956  0.41228441  0.72846123     0.10500
S1915       S  0.96126248  0.35684701  0.67193983    -0.32900
S1916       S  0.58243741  0.43227673  0.75221948    -0.32900
H1917       H  0.58437617  0.46084830  0.72997408     0.28500
H1918       H  0.94875208  0.38573201  0.65390319     0.28500
H1919       H  0.97349573  0.42627075  0.68627923     0.19100
H1920       H  0.57462235  0.36453857  0.73191107     0.19100
C1921       C  0.84252638  0.04087215  0.79574279    -0.06700
C1922       C  0.86248607  0.01024619  0.80072196    -0.17900
C1923       C  0.89725078  0.00702496  0.79015670     0.10500
C1924       C  0.91312617  0.03393990  0.77181277    -0.06700
C1925       C  0.89281887  0.06232416  0.76234816    -0.17900
C1926       C  0.85793499  0.06586824  0.77309276     0.10500
S1927       S  0.92002027  0.46757180  0.79891277    -0.32900
S1928       S  0.83456924  0.10307771  0.75757391    -0.32900
H1929       H  0.85981121  0.11523452  0.73400663     0.28500
H1930       H  0.93989738  0.46626954  0.76788046     0.28500
H1931       H  0.85205534  0.48857357  0.81260065     0.19100
H1932       H  0.90474137  0.08227257  0.74679499     0.19100
C1933       C  0.79509961  0.47285605  0.90071781    -0.06700
C1934       C  0.76897306  0.47414679  0.87529828    -0.17900
C1935       C  0.77315240  0.49161346  0.84331103     0.10500
C1936       C  0.79925237  0.01590107  0.84062498    -0.06700
C1937       C  0.82352699  0.51765136  0.86666437    -0.17900
C1938       C  0.82517809  0.49277667  0.89212185     0.10500
S1939       S  0.74107162  0.98322400  0.81199265    -0.32900
S1940       S  0.86988211  0.48325000  0.90104697    -0.32900
H1941       H  0.86871294  0.45026715  0.88608925     0.28500
H1942       H  0.72078411  0.95924935  0.83024758     0.28500
H1943       H  0.74673054  0.45811105  0.87822673     0.19100
H1944       H  0.84501443  0.03416159  0.86533626     0.19100
C1945       C  0.72975516  0.09399384  0.67462065    -0.06700
C1946       C  0.70434194  0.11912978  0.68433671    -0.17900
C1947       C  0.71020975  0.15431417  0.68251123     0.10500
C1948       C  0.74125282  0.16637356  0.66809372    -0.06700
C1949       C  0.76804385  0.14273224  0.66118292    -0.17900
C1950       C  0.76353170  0.10714130  0.66685688     0.10500
S1951       S  0.67711478  0.18232367  0.70054012    -0.32900
S1952       S  0.80110182  0.07933112  0.66249544    -0.32900
H1953       H  0.82581971  0.10522874  0.65772079     0.28500
H1954       H  0.69872856  0.20994946  0.70769493     0.28500
H1955       H  0.68020804  0.11218364  0.69666406     0.19100
H1956       H  0.79245406  0.15222082  0.65115183     0.19100
C1957       C  0.74438378  0.04660566  0.71397330    -0.06700
C1958       C  0.73588214  0.06850689  0.74222441    -0.17900
C1959       C  0.75658423  0.07242257  0.77074721     0.10500
C1960       C  0.78003205  0.04516665  0.77991324    -0.06700
C1961       C  0.78541080  0.01936603  0.75380382    -0.17900
C1962       C  0.77058114  0.02122999  0.72034478     0.10500
S1963       S  0.75456335  0.11624156  0.78744356    -0.32900
S1964       S  0.78645147  0.48814875  0.68843701    -0.32900
H1965       H  0.78967193  0.01004954  0.66133595     0.28500
H1966       H  0.74548145  0.13272027  0.75624301     0.28500
H1967       H  0.71421619  0.08610810  0.74047360     0.19100
H1968       H  0.80340928  0.99847810  0.75872243     0.19100
C1969       C  0.68320214  0.04790098  0.69098430    -0.06700
C1970       C  0.65769165  0.06049237  0.66822405    -0.17900
C1971       C  0.62226408  0.05740265  0.67549854     0.10500
C1972       C  0.61124201  0.03939015  0.70551822    -0.06700
C1973       C  0.63588115  0.02401334  0.72632353    -0.17900
C1974       C  0.67098324  0.02599486  0.71870310     0.10500
S1975       S  0.59304315  0.07846771  0.64618683    -0.32900
S1976       S  0.69671845  0.99550538  0.74268730    -0.32900
H1977       H  0.67087929  0.97101973  0.74927474     0.28500
H1978       H  0.57351573  0.09531158  0.67247771     0.28500
H1979       H  0.66563848  0.07467709  0.64530975     0.19100
H1980       H  0.62747457  0.00902347  0.74858230     0.19100
C1981       C  0.72230040  0.46251882  0.02346070    -0.06700
C1982       C  0.73823308  0.43074547  0.01391188    -0.17900
C1983       C  0.76229210  0.42652559  0.98763449     0.10500
C1984       C  0.76549796  0.45159666  0.96115165    -0.06700
C1985       C  0.74632037  0.48254836  0.96633507    -0.17900
C1986       C  0.72546889  0.48866545  0.99694579     0.10500
S1987       S  0.78592446  0.38610398  0.98863527    -0.32900
S1988       S  0.70338946  0.02952460  0.99634882    -0.32900
H1989       H  0.69206666  0.03018412  0.52997077     0.28500
H1990       H  0.78477958  0.38216501  0.02504983     0.28500
H1991       H  0.73210256  0.40679005  0.02619375     0.19100
H1992       H  0.74814448  0.50246464  0.94678575     0.19100
C1993       C  0.70896336  0.98820492  0.58853171    -0.06700
C1994       C  0.73053715  0.01690212  0.58400102    -0.17900
C1995       C  0.73510926  0.04089625  0.61137390     0.10500
C1996       C  0.72778256  0.03114962  0.64707416    -0.06700
C1997       C  0.71526693  0.99757896  0.65089495    -0.17900
C1998       C  0.69996096  0.47952851  0.62285941     0.10500
S1999       S  0.74516732  0.08315112  0.59570089    -0.32900
S2000       S  0.66683429  0.45018822  0.63813331    -0.32900
H2001       H  0.64463805  0.45417102  0.61012942     0.28500
H2002       H  0.71272215  0.09676798  0.60605232     0.28500
H2003       H  0.74077672  0.02289723  0.55846195     0.19100
H2004       H  0.71271967  0.48620935  0.67516346     0.19100
C2005       C  0.70461228  0.42610640  0.57417271    -0.06700
C2006       C  0.67956735  0.39989338  0.57308689    -0.17900
C2007       C  0.68731628  0.36604444  0.58323480     0.10500
C2008       C  0.71957936  0.35846998  0.59812581    -0.06700
C2009       C  0.74350791  0.38436580  0.60216501    -0.17900
C2010       C  0.73766192  0.41716808  0.58893716     0.10500
S2011       S  0.65560225  0.33280908  0.57723501    -0.32900
S2012       S  0.77477796  0.44542313  0.58803967    -0.32900
H2013       H  0.80057527  0.41990105  0.59145545     0.28500
H2014       H  0.63039364  0.35334581  0.56116111     0.28500
H2015       H  0.65400368  0.40524171  0.56392810     0.19100
H2016       H  0.76800640  0.37818701  0.61394386     0.19100
C2017       C  0.86613204  0.23365283  0.90788841    -0.06700
C2018       C  0.86814109  0.21949338  0.94137768    -0.17900
C2019       C  0.89718513  0.20070141  0.95248723     0.10500
C2020       C  0.92808923  0.19892782  0.93140923    -0.06700
C2021       C  0.92378440  0.21045999  0.89647661    -0.17900
C2022       C  0.89519119  0.22979283  0.88567324     0.10500
S2023       S  0.88794454  0.17157206  0.98757757    -0.32900
S2024       S  0.89747311  0.24833521  0.84279243    -0.32900
H2025       H  0.88169436  0.27945162  0.85342929     0.28500
H2026       H  0.86575665  0.19416575  0.00638628     0.28500
H2027       H  0.84509336  0.21949637  0.95780656     0.19100
H2028       H  0.94318264  0.20523746  0.87661256     0.19100
C2029       C  0.78754522  0.14163102  0.86802253    -0.06700
C2030       C  0.76234943  0.11669214  0.87120886    -0.17900
C2031       C  0.76727111  0.08445111  0.85523570     0.10500
C2032       C  0.79890756  0.07722032  0.83572015    -0.06700
C2033       C  0.82638567  0.09989691  0.84096838    -0.17900
C2034       C  0.82063010  0.13219472  0.85541671     0.10500
S2035       S  0.72930194  0.05799456  0.85392468    -0.32900
S2036       S  0.85641117  0.16081909  0.85629976    -0.32900
H2037       H  0.84875380  0.16931357  0.89115844     0.28500
H2038       H  0.71380231  0.07060113  0.88495740     0.28500
H2039       H  0.73713539  0.12403284  0.88173884     0.19100
H2040       H  0.85248726  0.09363230  0.83272661     0.19100
C2041       C  0.76941470  0.34496453  0.88309207    -0.06700
C2042       C  0.74401990  0.36104853  0.90353696    -0.17900
C2043       C  0.74772600  0.39467579  0.91524989     0.10500
C2044       C  0.78092771  0.41125449  0.91125374    -0.06700
C2045       C  0.80233400  0.39786222  0.88417682    -0.17900
C2046       C  0.79764263  0.36457279  0.87089405     0.10500
S2047       S  0.70708382  0.41298894  0.93163043    -0.32900
S2048       S  0.83070164  0.34738487  0.84200839    -0.32900
H2049       H  0.83586766  0.31804593  0.86257642     0.28500
H2050       H  0.71111294  0.44656004  0.91951116     0.28500
H2051       H  0.72051462  0.34728825  0.90994371     0.19100
H2052       H  0.82484349  0.41198525  0.87569211     0.19100
C2053       C  0.59397511  0.23145522  0.83052633    -0.06700
C2054       C  0.61957432  0.23259272  0.80317299    -0.17900
C2055       C  0.65529251  0.23683091  0.80894134     0.10500
C2056       C  0.66808614  0.23702492  0.84310645    -0.06700
C2057       C  0.64369359  0.23479819  0.87033557    -0.17900
C2058       C  0.60780808  0.23396022  0.86532118     0.10500
S2059       S  0.68265360  0.24419747  0.77154701    -0.32900
S2060       S  0.58353026  0.23836517  0.90597365    -0.32900
H2061       H  0.60685064  0.25982950  0.92319439     0.28500
H2062       H  0.69626077  0.27472125  0.78526010     0.28500
H2063       H  0.61124908  0.23212155  0.77640323     0.19100
H2064       H  0.65281125  0.23482636  0.89680347     0.19100
C2065       C  0.97792527  0.38370754  0.53176962    -0.06700
C2066       C  0.95725551  0.36217862  0.51160578    -0.17900
C2067       C  0.94522166  0.33031556  0.52419003     0.10500
C2068       C  0.95512990  0.31874019  0.55823811    -0.06700
C2069       C  0.97125602  0.34368446  0.57920652    -0.17900
C2070       C  0.98480576  0.37402866  0.56607914     0.10500
S2071       S  0.91898692  0.30662461  0.49386544    -0.32900
S2072       S  0.01244853  0.39827908  0.59429804    -0.32900
H2073       H  0.03534067  0.40867274  0.56752417     0.28500
H2074       H  0.90540060  0.28165560  0.51603819     0.28500
H2075       H  0.95299244  0.37031811  0.98530073     0.19100
H2076       H  0.97521971  0.33930255  0.60621993     0.19100
C2077       C  0.82685117  0.44562798  0.95167685    -0.06700
C2078       C  0.83106526  0.47653698  0.97174114    -0.17900
C2079       C  0.86181287  0.48568143  0.98719983     0.10500
C2080       C  0.89061843  0.46422007  0.98214758    -0.06700
C2081       C  0.88652309  0.43176270  0.96688191    -0.17900
C2082       C  0.85542320  0.42145422  0.95213325     0.10500
S2083       S  0.86583462  0.02546898  0.00707349    -0.32900
S2084       S  0.85979209  0.37973266  0.93138385    -0.32900
H2085       H  0.82724899  0.36650522  0.93872357     0.28500
H2086       H  0.90065345  0.03258474  0.00004643     0.28500
H2087       H  0.81095868  0.49603370  0.97279063     0.19100
H2088       H  0.90891150  0.41476548  0.96464239     0.19100
C2089       C  0.59147793  0.47756269  0.51856909    -0.06700
C2090       C  0.60382999  0.49941907  0.54412630    -0.17900
C2091       C  0.63754157  0.49688425  0.55651394     0.10500
C2092       C  0.66057919  0.46962558  0.54445171    -0.06700
C2093       C  0.64803666  0.44899870  0.51694874    -0.17900
C2094       C  0.61421632  0.45216169  0.50448965     0.10500
S2095       S  0.64805837  0.03245512  0.58592310    -0.32900
S2096       S  0.60124692  0.41985682  0.97559045    -0.32900
H2097       H  0.57036080  0.41186055  0.99358845     0.28500
H2098       H  0.62709886  0.05786774  0.57062752     0.28500
H2099       H  0.58714075  0.01995617  0.55351649     0.19100
H2100       H  0.66466287  0.42889335  0.00807290     0.19100
C2101       C  0.98334034  0.07811865  0.96489849    -0.06700
C2102       C  0.00826997  0.10228514  0.97355905    -0.17900
C2103       C  0.00374408  0.13759237  0.96656228     0.10500
C2104       C  0.97184120  0.15019668  0.95259181    -0.06700
C2105       C  0.94700649  0.12529933  0.94362289    -0.17900
C2106       C  0.95281110  0.08981909  0.94875403     0.10500
S2107       S  0.54096478  0.16667542  0.47382743    -0.32900
S2108       S  0.91999077  0.06093704  0.93399027    -0.32900
H2109       H  0.94250519  0.03356484  0.92519433     0.28500
H2110       H  0.56489371  0.14037718  0.98087886     0.28500
H2111       H  0.53339259  0.09384088  0.48315138     0.19100
H2112       H  0.92342874  0.13305368  0.93105560     0.19100
O2113       O  0.53239783  0.99300817  0.03304424    -0.72400
O2114       O  0.93723170  0.98337308  0.01606955    -0.72600
O2115       O  0.98571752  0.94271133  0.04032778    -0.72500
O2116       O  0.98310069  0.53687052  0.00964130    -0.72500
O2117       O  0.99684724  0.51817689  0.45589794    -0.72400
O2118       O  0.99273375  0.92586018  0.48719639    -0.72400
O2119       O  0.94813764  0.97052817  0.46290461    -0.72400
O2120       O  0.54448546  0.97154123  0.47965731    -0.72600
V2121       V  0.98530709  0.98815218  0.02344855     1.35200
V2122       V  0.99541781  0.97269339  0.47239780     1.35200
C2123       C  0.55470699  0.98196934  0.01094691     0.76900
C2124       C  0.92641616  0.97461786  0.48749155     0.76900
C2125       C  0.98850700  0.91776775  0.01929455     0.76800
C2126       C  0.98872079  0.54273608  0.47651300     0.76700
O2127       O  0.75814192  0.78850294  0.40255159    -0.68000
O2128       O  0.76599260  0.69113371  0.39838458    -0.72600
O2129       O  0.80725478  0.74198773  0.41629830    -0.72500
O2130       O  0.71528273  0.73754757  0.38466650    -0.72500
O2131       O  0.73284288  0.74191872  0.33110131    -0.72400
O2132       O  0.82636546  0.74423601  0.36302764    -0.72400
O2133       O  0.78379912  0.69529114  0.34454869    -0.72400
O2134       O  0.77782051  0.79227405  0.34940811    -0.72600
V2135       V  0.76174854  0.74000165  0.39931054     1.35200
V2136       V  0.77957087  0.74349255  0.34792058     1.35200
C2137       C  0.76858633  0.80692076  0.37747556     0.76900
C2138       C  0.77857405  0.67709656  0.37119839     0.76900
C2139       C  0.83269933  0.74174825  0.39520367     0.76800
C2140       C  0.70778990  0.73897418  0.35274923     0.76700
C2141       C  0.69952736  0.96388324  0.05883846    -0.03100
C2142       C  0.72506952  0.55549077  0.17934600    -0.03100
C2143       C  0.79334063  0.94428286  0.43056475    -0.03100
C2144       C  0.80769953  0.54597702  0.31071351    -0.03100
O2145       O  0.50543703  0.99306068  0.19983598    -0.72400
O2146       O  0.51124341  0.58992519  0.22256743    -0.72600
O2147       O  0.55294866  0.54132779  0.19519633    -0.72500
O2148       O  0.96162663  0.54134856  0.22788097    -0.72500
O2149       O  0.47700142  0.52703675  0.28006483    -0.72400
O2150       O  0.57031312  0.53239772  0.24776968    -0.72400
O2151       O  0.52570116  0.57699914  0.27529339    -0.72400
O2152       O  0.52427855  0.98119097  0.25124121    -0.72600
V2153       V  0.50722358  0.54117829  0.21316637     1.35200
V2154       V  0.52376060  0.52966500  0.26313273     1.35200
C2155       C  0.51667730  0.97070514  0.22118970     0.76900
C2156       C  0.52176221  0.59964367  0.25218628     0.76900
C2157       C  0.57744073  0.53844525  0.21605994     0.76800
C2158       C  0.95367803  0.53410738  0.25901594     0.76700
O2159       O  0.75327039  0.72765716  0.17325704    -0.72400
O2160       O  0.74333332  0.81937129  0.13974874    -0.72600
O2161       O  0.70192308  0.77584211  0.17193003    -0.72500
O2162       O  0.79569485  0.77286150  0.14140498    -0.72500
O2163       O  0.78048913  0.75402332  0.09066295    -0.72400
O2164       O  0.68582445  0.75557843  0.12206742    -0.72400
O2165       O  0.72673974  0.79932964  0.08996227    -0.72400
O2166       O  0.73838950  0.70838962  0.12257106    -0.72600
V2167       V  0.74844366  0.77332522  0.15561535     1.35200
V2168       V  0.73339023  0.75443270  0.10731900     1.35200
C2169       C  0.74687565  0.70241943  0.15352532     0.76900
C2170       C  0.73101363  0.82466956  0.10990693     0.76900
C2171       C  0.67787163  0.76861769  0.15150993     0.76800
C2172       C  0.80409455  0.76398414  0.11073282     0.76700
C2173       C  0.55570572  0.73324449  0.31920060    -0.03100
C2174       C  0.96842915  0.69031370  0.44473321    -0.03100
C2175       C  0.53882841  0.81905978  0.19482711    -0.03100
C2176       C  0.95360017  0.77989358  0.07310168    -0.03100
C2177       C  0.97692138  0.77599000  0.10681770    -0.06700
C2178       C  0.96315408  0.77815997  0.14152739    -0.17900
C2179       C  0.98483077  0.78146298  0.17061910     0.10500
C2180       C  0.51588171  0.80086711  0.16533993    -0.06700
C2181       C  0.52855505  0.80058861  0.12990147    -0.17900
C2182       C  0.01319749  0.77954373  0.10501054     0.10500
S2183       S  0.97551909  0.75088434  0.20442620    -0.32900
S2184       S  0.04077120  0.75013340  0.08076711    -0.32900
H2185       H  0.01629546  0.72370490  0.07948903     0.28500
H2186       H  0.01020560  0.74208175  0.21010980     0.28500
H2187       H  0.93602608  0.77518680  0.14722508     0.19100
H2188       H  0.55337406  0.81097285  0.12273669     0.19100
C2189       C  0.97234330  0.70980664  0.98060659    -0.06700
C2190       C  0.99223640  0.73996407  0.98419327    -0.17900
C2191       C  0.99067466  0.76118348  0.01459458     0.10500
C2192       C  0.96564294  0.75420891  0.04223902    -0.06700
C2193       C  0.94943212  0.72224447  0.03881094    -0.17900
C2194       C  0.95791983  0.69838845  0.01292609     0.10500
S2195       S  0.02100626  0.79662655  0.01558355    -0.32900
S2196       S  0.95581669  0.65374135  0.02701156    -0.32900
H2197       H  0.95368420  0.66003823  0.06310238     0.28500
H2198       H  0.04040377  0.78856784  0.98525807     0.28500
H2199       H  0.01359155  0.74574360  0.46656408     0.19100
H2200       H  0.92996149  0.71379501  0.05621831     0.19100
C2201       C  0.53394950  0.72648575  0.35323209    -0.06700
C2202       C  0.53558543  0.69239923  0.36553155    -0.17900
C2203       C  0.51256218  0.67952991  0.39023805     0.10500
C2204       C  0.49416123  0.70265603  0.41355994    -0.06700
C2205       C  0.49527408  0.73804016  0.40358206    -0.17900
C2206       C  0.51343664  0.74995054  0.37370369     0.10500
S2207       S  0.50365309  0.63426262  0.38326316    -0.32900
S2208       S  0.51318743  0.79579369  0.36760111    -0.32900
H2209       H  0.54928393  0.79732307  0.36441794     0.28500
H2210       H  0.51386449  0.63213360  0.34789944     0.28500
H2211       H  0.55304710  0.67412208  0.35289494     0.19100
H2212       H  0.98081418  0.75553366  0.41938669     0.19100
C2213       C  0.54703251  0.76771181  0.29820472    -0.06700
C2214       C  0.51384410  0.77670180  0.28560703    -0.17900
C2215       C  0.50959222  0.79809953  0.25597601     0.10500
C2216       C  0.53862840  0.80488362  0.23398964    -0.06700
C2217       C  0.57019068  0.80446428  0.25276186    -0.17900
C2218       C  0.57285291  0.79052281  0.28617042     0.10500
S2219       S  0.96924898  0.81895116  0.25175878    -0.32900
S2220       S  0.60313446  0.81015637  0.31553575    -0.32900
H2221       H  0.61897242  0.83227376  0.29128585     0.28500
H2222       H  0.98424010  0.85167443  0.25325630     0.28500
H2223       H  0.49133262  0.77157000  0.30128557     0.19100
H2224       H  0.59320687  0.81621844  0.24226011     0.19100
C2225       C  0.57639542  0.80855822  0.18115781    -0.06700
C2226       C  0.58388326  0.77259475  0.18146137    -0.17900
C2227       C  0.61510366  0.75843968  0.16929069     0.10500
C2228       C  0.64223084  0.78046957  0.16016002    -0.06700
C2229       C  0.63549818  0.81608293  0.15907578    -0.17900
C2230       C  0.60225847  0.83003028  0.16595157     0.10500
S2231       S  0.61744461  0.71226827  0.16575096    -0.32900
S2232       S  0.59271821  0.87191717  0.14773809    -0.32900
H2233       H  0.62611614  0.87948820  0.13516222     0.28500
H2234       H  0.64393869  0.71049005  0.14038679     0.28500
H2235       H  0.56422314  0.75492359  0.19024685     0.19100
H2236       H  0.65607868  0.83284449  0.15047693     0.19100
C2237       C  0.84067691  0.76663391  0.09892853    -0.06700
C2238       C  0.86432174  0.74120089  0.10856553    -0.17900
C2239       C  0.90018082  0.74441596  0.10253704     0.10500
C2240       C  0.91385377  0.77424672  0.08433218    -0.06700
C2241       C  0.88892708  0.80070040  0.07782239    -0.17900
C2242       C  0.85336801  0.79690983  0.08391991     0.10500
S2243       S  0.92490707  0.70961750  0.12253849    -0.32900
S2244       S  0.82550636  0.83289599  0.07367676    -0.32900
H2245       H  0.79739429  0.81308501  0.06315252     0.28500
H2246       H  0.95757962  0.71458858  0.10744784     0.28500
H2247       H  0.85468982  0.71881207  0.12226387     0.19100
H2248       H  0.89623950  0.82531022  0.06749008     0.19100
C2249       C  0.54653052  0.70114088  0.29420732    -0.06700
C2250       C  0.57236554  0.67627032  0.28475206    -0.17900
C2251       C  0.56517976  0.64485989  0.26844540     0.10500
C2252       C  0.53108986  0.63604434  0.26026419    -0.06700
C2253       C  0.50505728  0.66000094  0.26781822    -0.17900
C2254       C  0.51161714  0.69105582  0.28575765     0.10500
S2255       S  0.60097952  0.61573755  0.26075191    -0.32900
S2256       S  0.97381128  0.70847169  0.30503268    -0.32900
H2257       H  0.45077235  0.70178460  0.27775085     0.28500
H2258       H  0.58960563  0.60736123  0.22750835     0.28500
H2259       H  0.59858055  0.67848732  0.29281345     0.19100
H2260       H  0.98015334  0.65065398  0.26340478     0.19100
C2261       C  0.52267232  0.93328045  0.21174066    -0.06700
C2262       C  0.49789107  0.91464999  0.19379716    -0.17900
C2263       C  0.50114485  0.87856900  0.18776026     0.10500
C2264       C  0.53149137  0.85958905  0.19849949    -0.06700
C2265       C  0.55560045  0.87934846  0.21725541    -0.17900
C2266       C  0.55221548  0.91502498  0.22287086     0.10500
S2267       S  0.96459581  0.85847065  0.17102866    -0.32900
S2268       S  0.58810187  0.93619756  0.24275009    -0.32900
H2269       H  0.58692833  0.96469643  0.22036107     0.28500
H2270       H  0.95248106  0.88738338  0.15276406     0.28500
H2271       H  0.97691192  0.92766717  0.18576462     0.19100
H2272       H  0.57906217  0.86746930  0.22609660     0.19100
C2273       C  0.84628080  0.54289036  0.29518997    -0.06700
C2274       C  0.86616349  0.51216836  0.29993205    -0.17900
C2275       C  0.90085691  0.50877468  0.28909969     0.10500
C2276       C  0.91688468  0.53567005  0.27087123    -0.06700
C2277       C  0.89696238  0.56464557  0.26243765    -0.17900
C2278       C  0.86225923  0.56856950  0.27376283     0.10500
S2279       S  0.92254486  0.96743472  0.29801467    -0.32900
S2280       S  0.83965437  0.60673100  0.25966653    -0.32900
H2281       H  0.86866333  0.62570103  0.24890227     0.28500
H2282       H  0.94296662  0.96714176  0.26732733     0.28500
H2283       H  0.85475611  0.98879981  0.31251031     0.19100
H2284       H  0.90894432  0.58458939  0.24691695     0.19100
C2285       C  0.79679186  0.97223605  0.40074514    -0.06700
C2286       C  0.77077083  0.97414013  0.37530987    -0.17900
C2287       C  0.77543506  0.99172311  0.34341235     0.10500
C2288       C  0.80213020  0.51691086  0.33867483    -0.06700
C2289       C  0.82603731  0.01691638  0.36719181    -0.17900
C2290       C  0.82727698  0.99167347  0.39230497     0.10500
S2291       S  0.74720357  0.48160322  0.30735081    -0.32900
S2292       S  0.87185160  0.98126800  0.40108774    -0.32900
H2293       H  0.87015966  0.94825215  0.38634494     0.28500
H2294       H  0.73328675  0.45143764  0.32177020     0.28500
H2295       H  0.74823628  0.95846752  0.37821291     0.19100
H2296       H  0.84710902  0.53546237  0.36467794     0.19100
C2297       C  0.73278292  0.59481247  0.17274250    -0.06700
C2298       C  0.70850761  0.62037555  0.18415447    -0.17900
C2299       C  0.71557274  0.65528652  0.18308489     0.10500
C2300       C  0.74562893  0.66680717  0.16646825    -0.06700
C2301       C  0.77127970  0.64269768  0.15709937    -0.17900
C2302       C  0.76636702  0.60721035  0.16297131     0.10500
S2303       S  0.68622003  0.68400571  0.20562800    -0.32900
S2304       S  0.80283775  0.57863909  0.15552524    -0.32900
H2305       H  0.82840497  0.60407905  0.15629767     0.28500
H2306       H  0.71267054  0.70473308  0.21826802     0.28500
H2307       H  0.68476768  0.61383972  0.19754160     0.19100
H2308       H  0.79509957  0.65164779  0.14518016     0.19100
C2309       C  0.74750102  0.54777238  0.21225155    -0.06700
C2310       C  0.73938270  0.56977882  0.24054825    -0.17900
C2311       C  0.76067150  0.57420324  0.26854418     0.10500
C2312       C  0.78412790  0.54694201  0.27768435    -0.06700
C2313       C  0.78972665  0.52133852  0.25146295    -0.17900
C2314       C  0.77412055  0.52269376  0.21832639     0.10500
S2315       S  0.75928814  0.61827519  0.28498940    -0.32900
S2316       S  0.78852996  0.98916600  0.18928215    -0.32900
H2317       H  0.79102334  0.51004306  0.15875657     0.28500
H2318       H  0.74105083  0.63423396  0.25797419     0.28500
H2319       H  0.71722487  0.58672169  0.23938474     0.19100
H2320       H  0.80804365  0.50069005  0.25624309     0.19100
C2321       C  0.68576189  0.54977100  0.18984484    -0.06700
C2322       C  0.66030592  0.56326348  0.16750334    -0.17900
C2323       C  0.62484581  0.56074534  0.17497680     0.10500
C2324       C  0.61374237  0.54214723  0.20458154    -0.06700
C2325       C  0.63826330  0.52620107  0.22509726    -0.17900
C2326       C  0.67343371  0.52848068  0.21792527     0.10500
S2327       S  0.59581257  0.58275101  0.14607166    -0.32900
S2328       S  0.69890655  0.49801496  0.24206062    -0.32900
H2329       H  0.67857469  0.49863879  0.27285320     0.28500
H2330       H  0.57376941  0.59659543  0.17207867     0.28500
H2331       H  0.66836922  0.57751047  0.14463755     0.19100
H2332       H  0.62955908  0.51007630  0.24638763     0.19100
C2333       C  0.72365275  0.96270107  0.52354535    -0.06700
C2334       C  0.74021845  0.93100463  0.51474147    -0.17900
C2335       C  0.76356048  0.92621958  0.48785216     0.10500
C2336       C  0.76651255  0.95097516  0.46099669    -0.06700
C2337       C  0.74737038  0.98195372  0.46596258    -0.17900
C2338       C  0.72669675  0.98843898  0.49660794     0.10500
S2339       S  0.78666953  0.88545825  0.48863670    -0.32900
S2340       S  0.70066663  0.52753835  0.49401812    -0.32900
H2341       H  0.68865123  0.52904246  0.03010075     0.28500
H2342       H  0.78696977  0.88201187  0.52509901     0.28500
H2343       H  0.73486498  0.90732578  0.52782666     0.19100
H2344       H  0.74908232  0.00164436  0.44617161     0.19100
C2345       C  0.70937542  0.48792537  0.08866143    -0.06700
C2346       C  0.72969768  0.51728720  0.08302229    -0.17900
C2347       C  0.73395669  0.54199970  0.10980185     0.10500
C2348       C  0.72937914  0.53199301  0.14582241    -0.06700
C2349       C  0.71785505  0.49817830  0.15061171    -0.17900
C2350       C  0.70140306  0.98146167  0.12486241     0.10500
S2351       S  0.73911276  0.58550976  0.09438436    -0.32900
S2352       S  0.66867184  0.95200546  0.14083048    -0.32900
H2353       H  0.64635967  0.95512030  0.11280722     0.28500
H2354       H  0.72678008  0.58035911  0.06053916     0.28500
H2355       H  0.73903122  0.52310609  0.05717499     0.19100
H2356       H  0.71538247  0.98823973  0.17685997     0.19100
C2357       C  0.70562985  0.92776008  0.07662914    -0.06700
C2358       C  0.68099317  0.90120899  0.07460291    -0.17900
C2359       C  0.68923262  0.86711615  0.08344260     0.10500
C2360       C  0.72121750  0.85955228  0.09887966    -0.06700
C2361       C  0.74455576  0.88573081  0.10429095    -0.17900
C2362       C  0.73851836  0.91881615  0.09201006     0.10500
S2363       S  0.65851983  0.83357655  0.07472480    -0.32900
S2364       S  0.77564393  0.94660337  0.09640062    -0.32900
H2365       H  0.77463686  0.96281774  0.06406110     0.28500
H2366       H  0.63581678  0.85351548  0.05468845     0.28500
H2367       H  0.65543637  0.90637429  0.06535194     0.19100
H2368       H  0.76907628  0.87968994  0.11619888     0.19100
C2369       C  0.86807732  0.73359246  0.40815103    -0.06700
C2370       C  0.87032297  0.71892659  0.44138885    -0.17900
C2371       C  0.89950479  0.70004256  0.45189229     0.10500
C2372       C  0.93060682  0.69974538  0.43100715    -0.06700
C2373       C  0.92635627  0.71215002  0.39645251    -0.17900
C2374       C  0.89719699  0.73062711  0.38582380     0.10500
S2375       S  0.89035331  0.66891986  0.48537373    -0.32900
S2376       S  0.89891455  0.74910056  0.34290975    -0.32900
H2377       H  0.88309734  0.78009090  0.35378923     0.28500
H2378       H  0.86702639  0.68985519  0.50474699     0.28500
H2379       H  0.84724158  0.71815539  0.45772971     0.19100
H2380       H  0.94597353  0.70789858  0.37660339     0.19100
C2381       C  0.78833387  0.64066259  0.36975319    -0.06700
C2382       C  0.76249062  0.61623703  0.36932806    -0.17900
C2383       C  0.76826593  0.58457566  0.35243633     0.10500
C2384       C  0.80094358  0.57801376  0.33455096    -0.06700
C2385       C  0.82826721  0.59999425  0.34269490    -0.17900
C2386       C  0.82212987  0.63104504  0.35963168     0.10500
S2387       S  0.73069542  0.55783736  0.34798049    -0.32900
S2388       S  0.85846512  0.65773428  0.36747403    -0.32900
H2389       H  0.84520570  0.66724281  0.40045825     0.28500
H2390       H  0.71196305  0.57111078  0.37689319     0.28500
H2391       H  0.73665208  0.62362386  0.37804754     0.19100
H2392       H  0.85470119  0.59377368  0.33553325     0.19100
C2393       C  0.77102694  0.84442290  0.38235419    -0.06700
C2394       C  0.74554878  0.86029009  0.40289100    -0.17900
C2395       C  0.74913326  0.89381013  0.41495749     0.10500
C2396       C  0.78218252  0.91062407  0.41095895    -0.06700
C2397       C  0.80369299  0.89743702  0.38382638    -0.17900
C2398       C  0.79915004  0.86421818  0.37029741     0.10500
S2399       S  0.70859216  0.91168372  0.43198174    -0.32900
S2400       S  0.83230652  0.84729167  0.34139483    -0.32900
H2401       H  0.83750331  0.81795750  0.36193586     0.28500
H2402       H  0.71213668  0.94501428  0.41899729     0.28500
H2403       H  0.72214668  0.84635384  0.40928718     0.19100
H2404       H  0.82617687  0.91163344  0.37547642     0.19100
C2405       C  0.59603532  0.73321587  0.32958082    -0.06700
C2406       C  0.62173972  0.73469071  0.30236261    -0.17900
C2407       C  0.65748994  0.73836795  0.30843151     0.10500
C2408       C  0.67017308  0.73707317  0.34264466    -0.06700
C2409       C  0.64563828  0.73447568  0.36966314    -0.17900
C2410       C  0.60979710  0.73496936  0.36444729     0.10500
S2411       S  0.68488129  0.74765870  0.27153730    -0.32900
S2412       S  0.58561918  0.74092656  0.40494671    -0.32900
H2413       H  0.60944974  0.76253289  0.42127209     0.28500
H2414       H  0.69936088  0.77679875  0.28721471     0.28500
H2415       H  0.61349277  0.73507764  0.27556412     0.19100
H2416       H  0.65457083  0.73364335  0.39619260     0.19100
C2417       C  0.98091160  0.88266170  0.03172064    -0.06700
C2418       C  0.96019046  0.86102940  0.01176558    -0.17900
C2419       C  0.94823235  0.82922843  0.02453404     0.10500
C2420       C  0.95819524  0.81781405  0.05867165    -0.06700
C2421       C  0.97514592  0.84259413  0.07921063    -0.17900
C2422       C  0.98837893  0.87296935  0.06586972     0.10500
S2423       S  0.92181588  0.80554860  0.99429414    -0.32900
S2424       S  0.01625920  0.89740612  0.09367721    -0.32900
H2425       H  0.03858807  0.90811865  0.06656313     0.28500
H2426       H  0.90926632  0.77964703  0.01597022     0.28500
H2427       H  0.95194072  0.87073516  0.48401957     0.19100
H2428       H  0.97992947  0.83824698  0.10608196     0.19100
C2429       C  0.82771752  0.94481949  0.45178596    -0.06700
C2430       C  0.83190612  0.97592517  0.47154091    -0.17900
C2431       C  0.86257005  0.98509770  0.48696212     0.10500
C2432       C  0.89112850  0.96332854  0.48242307    -0.06700
C2433       C  0.88700032  0.93064044  0.46772807    -0.17900
C2434       C  0.85603449  0.92040424  0.45273108     0.10500
S2435       S  0.86425870  0.52530956  0.50856687    -0.32900
S2436       S  0.86039839  0.87866118  0.43198187    -0.32900
H2437       H  0.82760997  0.86565666  0.43852787     0.28500
H2438       H  0.89792798  0.53406289  0.49817131     0.28500
H2439       H  0.81195602  0.99559362  0.47213394     0.19100
H2440       H  0.90935460  0.91360609  0.46573137     0.19100
C2441       C  0.59182190  0.97853627  0.02056155    -0.06700
C2442       C  0.60387902  0.00013473  0.04653531    -0.17900
C2443       C  0.63763233  0.99772975  0.05905369     0.10500
C2444       C  0.66100644  0.97083000  0.04677174    -0.06700
C2445       C  0.64863756  0.95039737  0.01901739    -0.17900
C2446       C  0.61489562  0.95349986  0.00634827     0.10500
S2447       S  0.64701695  0.53029331  0.08935323    -0.32900
S2448       S  0.60276654  0.92022858  0.47356266    -0.32900
H2449       H  0.57166612  0.91233218  0.49120991     0.28500
H2450       H  0.62671710  0.55618079  0.07396887     0.28500
H2451       H  0.58601922  0.51849252  0.05696890     0.19100
H2452       H  0.66588945  0.92934462  0.50683922     0.19100
C2453       C  0.98477108  0.57896760  0.46453732    -0.06700
C2454       C  0.00967969  0.60294437  0.47389979    -0.17900
C2455       C  0.00548504  0.63836414  0.46704944     0.10500
C2456       C  0.97401258  0.65117684  0.45239939    -0.06700
C2457       C  0.94934652  0.62639334  0.44262590    -0.17900
C2458       C  0.95474099  0.59092023  0.44781657     0.10500
S2459       S  0.54109320  0.66569429  0.97346180    -0.32900
S2460       S  0.92199059  0.56223834  0.43259032    -0.32900
H2461       H  0.94507672  0.53620438  0.42126264     0.28500
H2462       H  0.56411289  0.64256525  0.48565599     0.28500
H2463       H  0.53306673  0.59303841  0.98387047     0.19100
H2464       H  0.92630438  0.63418832  0.42915221     0.19100
O2465       O  0.53331230  0.99220866  0.53122946    -0.72400
O2466       O  0.93642116  0.98587455  0.51640327    -0.72600
O2467       O  0.98461102  0.94480203  0.53996631    -0.72500
O2468       O  0.98337488  0.53571920  0.50822283    -0.72500
O2469       O  0.99663860  0.51907209  0.95740912    -0.72400
O2470       O  0.99542037  0.92412827  0.98762381    -0.72400
O2471       O  0.94985962  0.96777282  0.96285347    -0.72400
O2472       O  0.54422095  0.97316206  0.98129497    -0.72600
V2473       V  0.98457270  0.99022627  0.52287125     1.35200
V2474       V  0.99701294  0.97105510  0.97298752     1.35200
C2475       C  0.55529014  0.98065993  0.50909025     0.76900
C2476       C  0.92764341  0.97215424  0.98694062     0.76900
C2477       C  0.98609290  0.91971617  0.51896937     0.76800
C2478       C  0.98839712  0.54368059  0.97785208     0.76700
O2479       O  0.75642924  0.78869806  0.90099769    -0.68000
O2480       O  0.76468666  0.69146222  0.89634866    -0.72600
O2481       O  0.80572552  0.74238095  0.91447726    -0.72500
O2482       O  0.71379046  0.73759988  0.88293668    -0.72500
O2483       O  0.73114921  0.74266676  0.82938233    -0.72400
O2484       O  0.82484845  0.74451042  0.86122217    -0.72400
O2485       O  0.78206314  0.69586612  0.84239803    -0.72400
O2486       O  0.77643461  0.79285333  0.84800545    -0.72600
V2487       V  0.76023281  0.74025704  0.89750936     1.35200
V2488       V  0.77798121  0.74405050  0.84612772     1.35200
C2489       C  0.76714279  0.80728654  0.87617462     0.76900
C2490       C  0.77710773  0.67757229  0.86902857     0.76900
C2491       C  0.83119350  0.74206380  0.89341859     0.76800
C2492       C  0.70617936  0.73923077  0.85107095     0.76700
C2493       C  0.69941441  0.96332294  0.55805107    -0.03100
C2494       C  0.72320881  0.55352295  0.67923457    -0.03100
C2495       C  0.79274590  0.94384951  0.93099402    -0.03100
C2496       C  0.80492021  0.54486770  0.81101733    -0.03100
O2497       O  0.50247660  0.99100701  0.70241538    -0.72400
O2498       O  0.50956427  0.58791686  0.72189135    -0.72600
O2499       O  0.55137976  0.53910990  0.69516682    -0.72500
O2500       O  0.95839495  0.53960636  0.72747650    -0.72500
O2501       O  0.47473166  0.52617472  0.77944151    -0.72400
O2502       O  0.56838080  0.52963229  0.74776156    -0.72400
O2503       O  0.52427747  0.57516129  0.77458967    -0.72400
O2504       O  0.52049191  0.97961490  0.75423783    -0.72600
V2505       V  0.50558035  0.53913748  0.71266020     1.35200
V2506       V  0.52163295  0.52783921  0.76286205     1.35200
C2507       C  0.51322090  0.96886187  0.72421426     0.76900
C2508       C  0.52026709  0.59770095  0.75142088     0.76900
C2509       C  0.57572251  0.53577747  0.71610984     0.76800
C2510       C  0.95039919  0.53261093  0.75865434     0.76700
O2511       O  0.75003269  0.72636924  0.67338169    -0.72400
O2512       O  0.73930777  0.81841511  0.64084286    -0.72600
O2513       O  0.69813669  0.77400591  0.67195194    -0.72500
O2514       O  0.79227900  0.77259975  0.64244068    -0.72500
O2515       O  0.77791908  0.75271316  0.59184169    -0.72400
O2516       O  0.68274069  0.75548029  0.62117162    -0.72400
O2517       O  0.72489358  0.79873340  0.59020309    -0.72400
O2518       O  0.73430117  0.70751333  0.62281601    -0.72600
V2519       V  0.74484969  0.77222469  0.65619181     1.35200
V2520       V  0.73051300  0.75368580  0.60752424     1.35200
C2521       C  0.74282642  0.70130075  0.65371816     0.76900
C2522       C  0.72814259  0.82391914  0.61057083     0.76900
C2523       C  0.67440452  0.76768368  0.65084260     0.76800
C2524       C  0.80114749  0.76341538  0.61196968     0.76700
C2525       C  0.55390996  0.73120517  0.81862945    -0.03100
C2526       C  0.96673477  0.69035142  0.94427392    -0.03100
C2527       C  0.53584104  0.81797136  0.69514439    -0.03100
C2528       C  0.94962956  0.78188198  0.57140262    -0.03100
C2529       C  0.97362117  0.77826177  0.60484469    -0.06700
C2530       C  0.96060299  0.77612731  0.63983469    -0.17900
C2531       C  0.98236958  0.77995954  0.66882791     0.10500
C2532       C  0.51251894  0.80098409  0.66549926    -0.06700
C2533       C  0.52423963  0.80375696  0.62994443    -0.17900
C2534       C  0.00920540  0.78569924  0.60299214     0.10500
S2535       S  0.97361098  0.75007710  0.70338666    -0.32900
S2536       S  0.03953463  0.75583530  0.58297676    -0.32900
H2537       H  0.01550171  0.72943707  0.57817281     0.28500
H2538       H  0.00839574  0.74162517  0.70892251     0.28500
H2539       H  0.93416336  0.77008144  0.64584403     0.19100
H2540       H  0.54823131  0.81614921  0.62316841     0.19100
C2541       C  0.97313153  0.71028705  0.48075031    -0.06700
C2542       C  0.99374967  0.73979184  0.48550092    -0.17900
C2543       C  0.98961251  0.76197310  0.51513352     0.10500
C2544       C  0.96167073  0.75644193  0.54027207    -0.06700
C2545       C  0.94253252  0.72652011  0.53357409    -0.17900
C2546       C  0.95430656  0.70093142  0.51098442     0.10500
S2547       S  0.01841901  0.79850467  0.51622227    -0.32900
S2548       S  0.96310097  0.66130057  0.53402667    -0.32900
H2549       H  0.94540823  0.63838635  0.51289515     0.28500
H2550       H  0.04475281  0.78446221  0.49455702     0.28500
H2551       H  0.01052632  0.74658967  0.96409268     0.19100
H2552       H  0.91973674  0.71974888  0.54762403     0.19100
C2553       C  0.53244727  0.72437311  0.85278326    -0.06700
C2554       C  0.53452529  0.69036301  0.86520029    -0.17900
C2555       C  0.51198726  0.67742079  0.89031456     0.10500
C2556       C  0.49356807  0.70053591  0.91364438    -0.06700
C2557       C  0.49413482  0.73583479  0.90337456    -0.17900
C2558       C  0.51184203  0.74774954  0.87327729     0.10500
S2559       S  0.50381374  0.63193895  0.88392474    -0.32900
S2560       S  0.51107340  0.79359717  0.86713110    -0.32900
H2561       H  0.54711137  0.79554210  0.86357794     0.28500
H2562       H  0.51220742  0.63014915  0.84809005     0.28500
H2563       H  0.55198207  0.67216798  0.85242749     0.19100
H2564       H  0.97811472  0.75543760  0.91747575     0.19100
C2565       C  0.54489354  0.76559116  0.79782404    -0.06700
C2566       C  0.51158815  0.77472901  0.78562002    -0.17900
C2567       C  0.50717626  0.79622746  0.75611076     0.10500
C2568       C  0.53602869  0.80264014  0.73372603    -0.06700
C2569       C  0.56795827  0.80140617  0.75183949    -0.17900
C2570       C  0.57074187  0.78800921  0.78534843     0.10500
S2571       S  0.96668499  0.81734902  0.75206615    -0.32900
S2572       S  0.60068348  0.80851729  0.81443570    -0.32900
H2573       H  0.62073405  0.82509184  0.78874091     0.28500
H2574       H  0.98117672  0.85020441  0.75501339     0.28500
H2575       H  0.48917065  0.76957876  0.80143887     0.19100
H2576       H  0.59100085  0.81291896  0.74110353     0.19100
C2577       C  0.57315595  0.80770575  0.68060372    -0.06700
C2578       C  0.57995465  0.77165052  0.67860149    -0.17900
C2579       C  0.61102777  0.75767336  0.66592054     0.10500
C2580       C  0.63879161  0.77967366  0.65914462    -0.06700
C2581       C  0.63277179  0.81542038  0.66025425    -0.17900
C2582       C  0.59970072  0.82961340  0.66745426     0.10500
S2583       S  0.61232430  0.71184276  0.65878012    -0.32900
S2584       S  0.59168414  0.87320658  0.65299031    -0.32900
H2585       H  0.62498650  0.88005367  0.63967371     0.28500
H2586       H  0.63960259  0.71107696  0.63427554     0.28500
H2587       H  0.55988410  0.75383901  0.68592303     0.19100
H2588       H  0.65386623  0.83225622  0.65323602     0.19100
C2589       C  0.83767854  0.76696506  0.60014481    -0.06700
C2590       C  0.86178747  0.74129513  0.60796982    -0.17900
C2591       C  0.89735429  0.74479593  0.60032922     0.10500
C2592       C  0.91025443  0.77557458  0.58331674    -0.06700
C2593       C  0.88494720  0.80195458  0.57817159    -0.17900
C2594       C  0.84963745  0.79768206  0.58539135     0.10500
S2595       S  0.92311233  0.70807725  0.61475650    -0.32900
S2596       S  0.82100905  0.83332758  0.57622406    -0.32900
H2597       H  0.79362071  0.81304231  0.56473425     0.28500
H2598       H  0.95518974  0.71588087  0.59975855     0.28500
H2599       H  0.85275638  0.71818496  0.62080492     0.19100
H2600       H  0.89173631  0.82668875  0.56768131     0.19100
C2601       C  0.54479671  0.69905818  0.79368645    -0.06700
C2602       C  0.57071343  0.67425752  0.78424291    -0.17900
C2603       C  0.56362788  0.64282288  0.76792661     0.10500
C2604       C  0.52959476  0.63406410  0.75945654    -0.06700
C2605       C  0.50351461  0.65794813  0.76699875    -0.17900
C2606       C  0.50990746  0.68864295  0.78557965     0.10500
S2607       S  0.59945995  0.61364294  0.76053705    -0.32900
S2608       S  0.97176638  0.70750992  0.80485903    -0.32900
H2609       H  0.45164365  0.67766187  0.80730538     0.28500
H2610       H  0.58809771  0.60471582  0.72743085     0.28500
H2611       H  0.59688692  0.67650261  0.79243570     0.19100
H2612       H  0.97728680  0.65026671  0.76247492     0.19100
C2613       C  0.51909452  0.93142287  0.71513816    -0.06700
C2614       C  0.49519554  0.91346625  0.69540997    -0.17900
C2615       C  0.49838361  0.87752805  0.68889368     0.10500
C2616       C  0.52830549  0.85824564  0.70015877    -0.06700
C2617       C  0.55145419  0.87724522  0.72082187    -0.17900
C2618       C  0.54771067  0.91263663  0.72771324     0.10500
S2619       S  0.95984388  0.85827447  0.67289501    -0.32900
S2620       S  0.58205627  0.93267375  0.75120438    -0.32900
H2621       H  0.58358363  0.96139112  0.72912511     0.28500
H2622       H  0.94757532  0.88721839  0.65478107     0.28500
H2623       H  0.97276937  0.92757829  0.68726741     0.19100
H2624       H  0.57443261  0.86505127  0.73040306     0.19100
C2625       C  0.84322805  0.54138848  0.79498022    -0.06700
C2626       C  0.86322615  0.51083435  0.80019525    -0.17900
C2627       C  0.89784292  0.50739925  0.78922337     0.10500
C2628       C  0.91359938  0.53403234  0.77036567    -0.06700
C2629       C  0.89343256  0.56263297  0.76125120    -0.17900
C2630       C  0.85875698  0.56655213  0.77261632     0.10500
S2631       S  0.91946653  0.96720429  0.79981711    -0.32900
S2632       S  0.83559255  0.60415159  0.75775595    -0.32900
H2633       H  0.86378275  0.62177192  0.74299670     0.28500
H2634       H  0.94033905  0.96652301  0.76943979     0.28500
H2635       H  0.85120473  0.98784735  0.81275901     0.19100
H2636       H  0.90525159  0.58232642  0.74528750     0.19100
C2637       C  0.79547205  0.97168804  0.90111218    -0.06700
C2638       C  0.76839015  0.97420529  0.87689474    -0.17900
C2639       C  0.77203136  0.99191280  0.84497104     0.10500
C2640       C  0.79968133  0.51633243  0.83946192    -0.06700
C2641       C  0.82379812  0.01633390  0.86728244    -0.17900
C2642       C  0.82614769  0.99003095  0.89133206     0.10500
S2643       S  0.74350387  0.48151828  0.80965927    -0.32900
S2644       S  0.87023984  0.97467976  0.89654131    -0.32900
H2645       H  0.88830960  0.00228183  0.88152308     0.28500
H2646       H  0.73398047  0.44891849  0.82219268     0.28500
H2647       H  0.74589413  0.95874759  0.88072333     0.19100
H2648       H  0.84491754  0.53536885  0.86468535     0.19100
C2649       C  0.73021899  0.59315643  0.67300925    -0.06700
C2650       C  0.70493573  0.61817148  0.68342073    -0.17900
C2651       C  0.71068459  0.65335918  0.68182022     0.10500
C2652       C  0.74124856  0.66561356  0.66658003    -0.06700
C2653       C  0.76798304  0.64210445  0.65888595    -0.17900
C2654       C  0.76378370  0.60647744  0.66466706     0.10500
S2655       S  0.67821562  0.68104963  0.70144608    -0.32900
S2656       S  0.80143240  0.57888540  0.65972779    -0.32900
H2657       H  0.82610397  0.60509340  0.65701056     0.28500
H2658       H  0.70003692  0.70861430  0.70809565     0.28500
H2659       H  0.68109097  0.61109787  0.69625455     0.19100
H2660       H  0.79212774  0.65169992  0.64829586     0.19100
C2661       C  0.74519412  0.54593586  0.71239642    -0.06700
C2662       C  0.73646190  0.56775402  0.74065370    -0.17900
C2663       C  0.75725328  0.57215568  0.76900231     0.10500
C2664       C  0.78092983  0.54516897  0.77830777    -0.06700
C2665       C  0.78673781  0.51942765  0.75219633    -0.17900
C2666       C  0.77175918  0.52094351  0.71876247     0.10500
S2667       S  0.75493113  0.61612800  0.78535629    -0.32900
S2668       S  0.78497590  0.98838067  0.68996247    -0.32900
H2669       H  0.79032451  0.50962448  0.65955681     0.28500
H2670       H  0.74404497  0.63225469  0.75458716     0.28500
H2671       H  0.71445343  0.58491052  0.73907448     0.19100
H2672       H  0.80503697  0.49880862  0.75714085     0.19100
C2673       C  0.68393700  0.54696212  0.68953413    -0.06700
C2674       C  0.65839024  0.55994238  0.66706706    -0.17900
C2675       C  0.62301054  0.55744781  0.67470678     0.10500
C2676       C  0.61203528  0.53927188  0.70463197    -0.06700
C2677       C  0.63662818  0.52342636  0.72515180    -0.17900
C2678       C  0.67179602  0.52549016  0.71763658     0.10500
S2679       S  0.59391598  0.57915739  0.64564982    -0.32900
S2680       S  0.69758135  0.49455777  0.74106404    -0.32900
H2681       H  0.67582306  0.49096981  0.77056474     0.28500
H2682       H  0.57273897  0.59421345  0.67170873     0.28500
H2683       H  0.66631396  0.57415770  0.64417279     0.19100
H2684       H  0.62791544  0.50755595  0.74661140     0.19100
C2685       C  0.72306643  0.96308376  0.02381400    -0.06700
C2686       C  0.73871425  0.93107771  0.01446817    -0.17900
C2687       C  0.76288918  0.92638800  0.98838015     0.10500
C2688       C  0.76630649  0.95108540  0.96162073    -0.06700
C2689       C  0.74753396  0.98236774  0.96661325    -0.17900
C2690       C  0.72668556  0.98899937  0.99716196     0.10500
S2691       S  0.78596352  0.88568832  0.98977666    -0.32900
S2692       S  0.70170652  0.52892783  0.99637179    -0.32900
H2693       H  0.69062711  0.52942343  0.52870425     0.28500
H2694       H  0.78393813  0.88129575  0.02612931     0.28500
H2695       H  0.73210928  0.90721177  0.02665108     0.19100
H2696       H  0.74958478  0.00213463  0.94693683     0.19100
C2697       C  0.70900248  0.48706080  0.58723359    -0.06700
C2698       C  0.73011005  0.51604195  0.58236630    -0.17900
C2699       C  0.73495889  0.54003411  0.60968695     0.10500
C2700       C  0.72834524  0.53022530  0.64550041    -0.06700
C2701       C  0.71639456  0.49647292  0.64955391    -0.17900
C2702       C  0.69886259  0.98105977  0.62395188     0.10500
S2703       S  0.74438100  0.58238123  0.59386077    -0.32900
S2704       S  0.66502957  0.95220447  0.63863268    -0.32900
H2705       H  0.64369208  0.95567648  0.60992353     0.28500
H2706       H  0.71199793  0.59575759  0.60471048     0.28500
H2707       H  0.73967487  0.52227628  0.55663840     0.19100
H2708       H  0.71113639  0.98723717  0.67641520     0.19100
C2709       C  0.70475426  0.92713250  0.57607203    -0.06700
C2710       C  0.67973011  0.90092390  0.57405758    -0.17900
C2711       C  0.68717387  0.86698742  0.58370321     0.10500
C2712       C  0.71890986  0.85888955  0.59935110    -0.06700
C2713       C  0.74242620  0.88483259  0.60513052    -0.17900
C2714       C  0.73701325  0.91797100  0.59262878     0.10500
S2715       S  0.65474386  0.83515775  0.57594907    -0.32900
S2716       S  0.77413638  0.94547539  0.59823796    -0.32900
H2717       H  0.77427575  0.96148872  0.56576101     0.28500
H2718       H  0.67565826  0.81684111  0.55175593     0.28500
H2719       H  0.65431000  0.90597059  0.56429808     0.19100
H2720       H  0.76656161  0.87859475  0.61768720     0.19100
C2721       C  0.86658801  0.73400108  0.90655953    -0.06700
C2722       C  0.86890684  0.72100255  0.94047569    -0.17900
C2723       C  0.89803306  0.70255995  0.95193038     0.10500
C2724       C  0.92880102  0.70003351  0.93069071    -0.06700
C2725       C  0.92435908  0.71083393  0.89553987    -0.17900
C2726       C  0.89557517  0.72964097  0.88430710     0.10500
S2727       S  0.88871281  0.67444688  0.98774421    -0.32900
S2728       S  0.89745983  0.74662820  0.84074964    -0.32900
H2729       H  0.88164341  0.77806666  0.85028983     0.28500
H2730       H  0.86755608  0.69807410  0.00645056     0.28500
H2731       H  0.84597703  0.72152233  0.95708312     0.19100
H2732       H  0.94371362  0.70524222  0.87574544     0.19100
C2733       C  0.78700467  0.64120349  0.86752686    -0.06700
C2734       C  0.76141777  0.61652966  0.86923915    -0.17900
C2735       C  0.76675139  0.58439140  0.85317690     0.10500
C2736       C  0.79880822  0.57743419  0.83430247    -0.06700
C2737       C  0.82628906  0.59977517  0.84081561    -0.17900
C2738       C  0.82046902  0.63154810  0.85635552     0.10500
S2739       S  0.72911300  0.55747664  0.85104094    -0.32900
S2740       S  0.85675486  0.65910325  0.86090183    -0.32900
H2741       H  0.84592861  0.66863625  0.89472398     0.28500
H2742       H  0.71234513  0.57057176  0.88120946     0.28500
H2743       H  0.73589906  0.62394929  0.87889384     0.19100
H2744       H  0.85255912  0.59342556  0.83318713     0.19100
C2745       C  0.76991590  0.84469639  0.88156715    -0.06700
C2746       C  0.74448175  0.86045032  0.90225089    -0.17900
C2747       C  0.74836311  0.89359686  0.91523851     0.10500
C2748       C  0.78147850  0.91031775  0.91142000    -0.06700
C2749       C  0.80322819  0.89726329  0.88437080    -0.17900
C2750       C  0.79850705  0.86427594  0.87031250     0.10500
S2751       S  0.70804335  0.91091500  0.93343919    -0.32900
S2752       S  0.83208085  0.84718239  0.84197679    -0.32900
H2753       H  0.83655567  0.81750004  0.86222254     0.28500
H2754       H  0.71095781  0.94472438  0.92169581     0.28500
H2755       H  0.72094165  0.84658495  0.90827089     0.19100
H2756       H  0.82614932  0.91130567  0.87673606     0.19100
C2757       C  0.59434106  0.73159525  0.82869827    -0.06700
C2758       C  0.61988491  0.73291765  0.80127712    -0.17900
C2759       C  0.65564069  0.73714286  0.80701973     0.10500
C2760       C  0.66851223  0.73690326  0.84117472    -0.06700
C2761       C  0.64414483  0.73460678  0.86839572    -0.17900
C2762       C  0.60827238  0.73428567  0.86342014     0.10500
S2763       S  0.68286350  0.74535260  0.76971218    -0.32900
S2764       S  0.58417344  0.74041428  0.90395102    -0.32900
H2765       H  0.60796099  0.76201861  0.92033604     0.28500
H2766       H  0.69690968  0.77530119  0.78421866     0.28500
H2767       H  0.61148403  0.73270180  0.77452739     0.19100
H2768       H  0.65323838  0.73451802  0.89487360     0.19100
C2769       C  0.97710045  0.88481853  0.53143728    -0.06700
C2770       C  0.95770368  0.86290246  0.51032380    -0.17900
C2771       C  0.94515197  0.83110494  0.52260828     0.10500
C2772       C  0.95330156  0.81997613  0.55722552    -0.06700
C2773       C  0.96747334  0.84539745  0.57898431    -0.17900
C2774       C  0.98190921  0.87552782  0.56628630     0.10500
S2775       S  0.92030729  0.80691708  0.49156591    -0.32900
S2776       S  0.00834807  0.89968503  0.59570587    -0.32900
H2777       H  0.03313518  0.90865009  0.57010497     0.28500
H2778       H  0.90358296  0.78463766  0.51459259     0.28500
H2779       H  0.95275266  0.86922756  0.98602054     0.19100
H2780       H  0.96954290  0.84117099  0.60630768     0.19100
C2781       C  0.82760557  0.94404835  0.95156614    -0.06700
C2782       C  0.83281731  0.97543219  0.97041554    -0.17900
C2783       C  0.86390615  0.98420193  0.98532085     0.10500
C2784       C  0.89206997  0.96181692  0.98094815    -0.06700
C2785       C  0.88712018  0.92910694  0.96659036    -0.17900
C2786       C  0.85556343  0.91910195  0.95252710     0.10500
S2787       S  0.86251403  0.52643181  0.01005488    -0.32900
S2788       S  0.85860980  0.87642911  0.93346878    -0.32900
H2789       H  0.82511413  0.86488021  0.93896576     0.28500
H2790       H  0.89699260  0.53483410  0.00290429     0.28500
H2791       H  0.81309743  0.99534692  0.97109623     0.19100
H2792       H  0.90908879  0.91155414  0.96471456     0.19100
C2793       C  0.59241228  0.97745969  0.51845721    -0.06700
C2794       C  0.60453012  0.00003130  0.54352914    -0.17900
C2795       C  0.63813339  0.99790578  0.55631082     0.10500
C2796       C  0.66133508  0.97045204  0.54504916    -0.06700
C2797       C  0.64919575  0.94942173  0.51763171    -0.17900
C2798       C  0.61539653  0.95196486  0.50502029     0.10500
S2799       S  0.64783837  0.53087020  0.58655528    -0.32900
S2800       S  0.60255811  0.92315064  0.97341557    -0.32900
H2801       H  0.57176459  0.91393480  0.99091129     0.28500
H2802       H  0.62746940  0.55676702  0.57127236     0.28500
H2803       H  0.58662145  0.51922400  0.55468510     0.19100
H2804       H  0.66524312  0.93057998  0.00762352     0.19100
C2805       C  0.98394025  0.57961080  0.96532629    -0.06700
C2806       C  0.00960947  0.60355564  0.97229314    -0.17900
C2807       C  0.00509730  0.63878933  0.96487900     0.10500
C2808       C  0.97284251  0.65131686  0.95153569    -0.06700
C2809       C  0.94739618  0.62657806  0.94418643    -0.17900
C2810       C  0.95298893  0.59126131  0.95006730     0.10500
S2811       S  0.54069230  0.66775068  0.47402846    -0.32900
S2812       S  0.91936766  0.56233790  0.93744856    -0.32900
H2813       H  0.94168693  0.53556223  0.92636684     0.28500
H2814       H  0.56592703  0.63993824  0.98003644     0.28500
H2815       H  0.53299203  0.59480099  0.48355555     0.19100
H2816       H  0.92340301  0.63429244  0.93240121     0.19100
loop_ 
_geom_bond_atom_site_label_1 
_geom_bond_atom_site_label_2 
_geom_bond_distance 
_geom_bond_site_symmetry_2 
_ccdc_geom_bond_type 
O1           C11   1.268       .  A
O1         V1417   1.905   1_455  S
O2          C364   1.262   1_554  A
O2            V9   1.897       .  S
O3           C13   1.261       .  A
O3            V9   1.880       .  S
O4          C366   1.263   1_554  A
O4          V713   1.902   1_545  S
O5           C14   1.271       .  A
O5          V714   1.926   1_545  S
O6          C365   1.267       .  A
O6           V10   1.912       .  S
O7           C12   1.261       .  A
O7           V10   1.876       .  S
O8          C363   1.263       .  A
O8         V1418   1.900   1_455  S
V9         O1409   1.902       .  S
V9          O708   1.900       .  S
V9          V362   2.087   1_554  T
V10         O709   1.922       .  S
V10        O1416   1.903       .  S
V10         V361   2.086       .  T
C11         O360   1.263   1_554  A
C11         C329   1.491       .  S
C12         O354   1.263       .  A
C12         C320   1.460       .  S
C13         O358   1.266   1_554  A
C13         C305   1.475       .  S
C14         O356   1.263       .  A
C14         C341   1.491       .  S
O15          C25   1.266       .  A
O15          V23   1.892       .  S
O16          C26   1.263       .  A
O16          V23   1.904       .  S
O17          C27   1.262       .  A
O17          V23   1.888       .  S
O18          C28   1.265       .  A
O18          V23   1.892       .  S
O19          C28   1.272       .  A
O19          V24   1.932       .  S
O20          C27   1.269       .  A
O20          V24   1.911       .  S
O21          C26   1.261       .  A
O21          V24   1.882       .  S
O22          C25   1.261       .  A
O22          V24   1.895       .  S
V23          V24   2.084       .  T
C25         C281   1.473       .  S
C26         C269   1.461       .  S
C27         C257   1.493       .  S
C28         C296   1.513       .  S
C29         C245   1.582       .  S
C29         C332   1.586       .  S
C29         C573   1.608       .  S
C29         C937   1.567       .  S
C30         C185   1.583       .  S
C30         C197   1.573       .  S
C30         C209   1.585       .  S
C30         C236   1.583       .  S
C31         C173   1.585       .  S
C31         C224   1.565       .  S
C31         C284   1.576       .  S
C31         C317   1.574       .  S
C32         C161   1.598       .  S
C32         C176   1.574       .  S
C32         C200   1.575       .  S
C32         C272   1.560       .  S
O33          C43   1.275       .  A
O33         V745   1.940       .  S
O34          C44   1.274       .  A
O34          V41   1.938       .  S
O35          C45   1.257       .  A
O35          V41   1.886       .  S
O36          C46   1.263       .  A
O36        V1449   1.899       .  S
O37        C1454   1.269       .  A
O37          V42   1.917   1_655  S
O38          C45   1.268       .  A
O38          V42   1.890       .  S
O39          C44   1.262       .  A
O39          V42   1.899       .  S
O40          C43   1.263       .  A
O40         V746   1.901       .  S
V41         O737   1.944   1_545  S
V41        O1444   1.900   1_455  S
V41          V42   2.084       .  T
V42         O744   1.903   1_545  S
C43         C149   1.509       .  S
C44         C140   1.499       .  S
C45         C212   1.473       .  S
C46        O1445   1.268       .  A
C46         C164   1.485       .  S
O47          C57   1.266       .  A
O47          V55   1.910       .  S
O48          C58   1.267       .  A
O48          V55   1.902       .  S
O49          C59   1.262       .  A
O49          V55   1.896       .  S
O50          C60   1.262       .  A
O50          V55   1.898       .  S
O51          C60   1.268       .  A
O51          V56   1.917       .  S
O52          C59   1.268       .  A
O52          V56   1.915       .  S
O53          C58   1.259       .  A
O53          V56   1.885       .  S
O54          C57   1.261       .  A
O54          V56   1.892       .  S
V55          V56   2.088       .  T
C57         C188   1.472       .  S
C58         C248   1.468       .  S
C59         C116   1.481       .  S
C60         C125   1.480       .  S
C61          C89   1.564       .  S
C61         C101   1.599       .  S
C61         C137   1.618       .  S
C61         C293   1.614       .  S
C62         C260   1.604       .  S
C62         C344   1.564       .  S
C62         C429   1.602       .  S
C62        C1500   1.596       .  S
C63          C68   1.614       .  S
C63         C104   1.602       .  S
C63         C113   1.585       .  S
C63         C152   1.599       .  S
C64          C65   1.600       .  S
C64          C80   1.607       .  S
C64         C128   1.606       .  S
C64         C308   1.584       .  S
C65          C66   1.428       .  A
C65          C70   1.413       .  A
C66          C67   1.414       .  A
C66          H75   1.075       .  S
C67        C1476   1.431       .  A
C67          S71   1.797       .  S
C68          C69   1.437       .  A
C68        C1475   1.432   1_455  A
C69        C1478   1.406       .  A
C69          H76   1.078       .  S
C70        C1477   1.406       .  A
C70          S72   1.798       .  S
S71          H74   1.402       .  S
S72          H73   1.407       .  S
C77         C414   1.604       .  S
C77          C78   1.416       .  A
C77          C82   1.424   1_556  A
C78          C79   1.427   1_556  A
C78         H439   1.073       .  S
C79          C80   1.453       .  A
C79          S83   1.820       .  S
C80          C81   1.405       .  A
C81          C82   1.389       .  A
C81          H88   1.055       .  S
C82          S84   1.821       .  S
S83          H86   1.406   1_554  S
S84          H85   1.407       .  S
H87         C430   1.074       .  S
C89          C90   1.408       .  A
C89          C94   1.425       .  A
C90          C91   1.388       .  A
C90          H99   1.081       .  S
C91          C92   1.440   1_455  A
C91          S95   1.818       .  S
C92        C1470   1.600       .  S
C92          C93   1.430       .  A
C93          C94   1.415   1_655  A
C93        H1508   1.083       .  S
C94          S96   1.799       .  S
S95          H98   1.409       .  S
S96          H97   1.402       .  S
H100       C1501   1.083       .  S
C101        C102   1.420       .  A
C101        C106   1.414       .  A
C102        C103   1.422       .  A
C102        H111   1.071   1_455  S
C103        C104   1.422       .  A
C103       S1515   1.797   1_455  S
C104        C105   1.430       .  A
C105        C106   1.398       .  A
C105        H112   1.078       .  S
C106        S108   1.814       .  S
S107       C1511   1.798       .  S
S107        H110   1.405       .  S
S108        H109   1.407       .  S
C113        C114   1.424       .  A
C113        C118   1.428       .  A
C114        C115   1.395       .  A
C114        H123   1.081       .  S
C115        C116   1.403       .  A
C115        S119   1.800       .  S
C116        C117   1.406       .  A
C117        C118   1.409       .  A
C117        H124   1.082       .  S
C118        S120   1.811       .  S
S119        H122   1.401       .  S
S120        H121   1.406       .  S
C125        C126   1.395       .  A
C125        C130   1.401       .  A
C126        C127   1.409       .  A
C126        H135   1.085       .  S
C127        C128   1.456       .  A
C127        S131   1.829       .  S
C128        C129   1.428       .  A
C129        C130   1.399       .  A
C129        H136   1.075       .  S
C130        S132   1.805       .  S
S131        H134   1.397       .  S
S132        H133   1.404       .  S
C137        C138   1.424       .  A
C137        C142   1.452       .  A
C138        C139   1.403       .  A
C138        H147   1.071       .  S
C139        C140   1.408       .  A
C139        S143   1.798       .  S
C140        C141   1.390       .  A
C141        C142   1.416       .  A
C141       H1556   1.084   1_455  S
C142       S1552   1.799   1_455  S
S143        H146   1.398       .  S
S144       C1550   1.800       .  S
S144       H1553   1.408       .  S
H145       S1552   1.408       .  S
H148       C1549   1.084       .  S
C149        C150   1.398   1_455  A
C149        C154   1.413       .  A
C150        C151   1.422   1_655  A
C150       H1567   1.083       .  S
C151        C152   1.446       .  A
C151       S1563   1.800   1_455  S
C152        C153   1.420       .  A
C153        C154   1.405       .  A
C153        H160   1.075       .  S
C154        S156   1.803       .  S
S155       C1559   1.800       .  S
S155        H158   1.407       .  S
S156        H157   1.406       .  S
H159       C1558   1.083       .  S
C161        C162   1.426       .  A
C161        C166   1.435       .  A
C162        C163   1.402       .  A
C162        H875   1.080   1_545  S
C163        C164   1.404       .  A
C163        S871   1.804   1_545  S
C164        C165   1.399       .  A
C165        C166   1.408       .  A
C165        H172   1.083       .  S
C166        S168   1.805       .  S
S167        C867   1.804       .  S
S167        H170   1.407       .  S
S168        H169   1.406       .  S
H171        C866   1.080       .  S
C173        C174   1.417       .  A
C173        C178   1.440       .  A
C174        C175   1.415       .  A
C174        H183   1.074       .  S
C175        C880   1.423       .  A
C175        S883   1.790       .  S
C176        C879   1.422   1_545  A
C176        C881   1.407       .  A
C177        C178   1.379       .  A
C177        C880   1.407       .  A
C177        H888   1.084       .  S
C178        S180   1.805       .  S
S179        C879   1.793       .  S
S179        H182   1.406       .  S
S180        H181   1.403       .  S
H184        C881   1.084       .  S
C185        C186   1.422       .  A
C185        C190   1.436       .  A
C186        C187   1.386       .  A
C186        H195   1.077       .  S
C187        C188   1.395       .  A
C187        S191   1.793       .  S
C188        C189   1.398       .  A
C189        C190   1.413       .  A
C189        H196   1.083       .  S
C190        S192   1.805       .  S
S191        H194   1.400       .  S
S192        H193   1.407       .  S
C197        C198   1.408       .  A
C197        C202   1.432       .  A
C198        C199   1.377       .  A
C198        H207   1.077       .  S
C199        C200   1.434       .  A
C199        S203   1.819       .  S
C200        C201   1.426       .  A
C201        C202   1.420       .  A
C201        H208   1.083       .  S
C202        S908   1.803   1_545  S
S203        H206   1.409       .  S
S204        C906   1.803       .  S
S204        H909   1.396       .  S
H205        S908   1.397   1_545  S
C209        C210   1.416       .  A
C209        C214   1.440       .  A
C210        C211   1.401       .  A
C210        H219   1.083       .  S
C211        C212   1.413       .  A
C211        S215   1.805       .  S
C212        C213   1.387       .  A
C213        C214   1.386       .  A
C213        H220   1.084       .  S
C214        S216   1.803   1_545  S
S215        H218   1.403       .  S
S216        H217   1.409       .  S
C221        C381   1.607       .  S
C221        C222   1.415       .  A
C221        C226   1.447       .  A
C222        C223   1.367       .  A
C222        H231   1.072       .  S
C223        C224   1.417       .  A
C223        S227   1.809       .  S
C224        C225   1.417       .  A
C225        C226   1.431       .  A
C225        H232   1.083       .  S
C226        S932   1.805       .  S
S227        H230   1.408       .  S
S228        C930   1.805   1_545  S
S228        H581   1.381       .  S
H229        S580   1.381   1_554  S
C233        C733   1.567       .  S
C233        C234   1.409   1_565  A
C233        C942   1.436       .  A
C234        C235   1.420       .  A
C234        H243   1.074       .  S
C235        C236   1.448       .  A
C235        S239   1.806       .  S
C236        C237   1.403   1_545  A
C237        C942   1.383       .  A
C237        H948   1.070       .  S
C238        C937   1.438       .  A
C238        C941   1.383       .  A
C238        S240   1.817       .  S
S239        H242   1.407       .  S
S240        H241   1.397       .  S
H244        C941   1.069       .  S
C245        C246   1.416       .  A
C245        C250   1.452       .  A
C246        C247   1.398       .  A
C246        H255   1.075       .  S
C247        C248   1.410       .  A
C247        S251   1.800       .  S
C248        C249   1.386       .  A
C249        C250   1.391       .  A
C249        H256   1.085       .  S
C250        S252   1.816       .  S
S251        H254   1.407       .  S
S252        H253   1.397       .  S
C257        C258   1.404       .  A
C257        C262   1.404       .  A
C258        C259   1.406       .  A
C258        H267   1.083       .  S
C259        C260   1.432       .  A
C259        S263   1.798       .  S
C260        C261   1.427       .  A
C261        C262   1.398       .  A
C261        H268   1.076       .  S
C262        S264   1.801       .  S
S263        H266   1.408       .  S
S264        H265   1.404       .  S
C269        C270   1.387       .  A
C269        C274   1.403       .  A
C270        C271   1.401       .  A
C270        H279   1.084       .  S
C271        C272   1.447       .  A
C271        S275   1.805       .  S
C272        C273   1.407       .  A
C273        C274   1.385       .  A
C273        H280   1.078       .  S
C274        S276   1.787       .  S
S275        H278   1.408       .  S
S276        H277   1.404       .  S
C281        C282   1.388       .  A
C281        C286   1.412       .  A
C282        C283   1.390       .  A
C282        H291   1.085       .  S
C283        C284   1.449       .  A
C283        S287   1.817       .  S
C284        C285   1.412       .  A
C285        C286   1.403       .  A
C285        H292   1.080       .  S
C286        S288   1.798       .  S
S287        H290   1.397       .  S
S288        H289   1.404       .  S
C293        C294   1.431       .  A
C293        C298   1.451       .  A
C294        C295   1.415       .  A
C294        H303   1.084       .  S
C295        C296   1.411       .  A
C295        S299   1.794       .  S
C296        C297   1.398       .  A
C297        C298   1.403       .  A
C297        H304   1.083       .  S
C298        S300   1.814       .  S
S299        H302   1.407       .  S
S300        H301   1.409       .  S
C305        C306   1.404       .  A
C305        C310   1.401       .  A
C306        C307   1.410       .  A
C306        H667   1.083   1_554  S
C307        C308   1.443       .  A
C307        S311   1.816   1_554  S
C308        C309   1.416       .  A
C309        C310   1.386       .  A
C309        H316   1.067       .  S
C310        S312   1.807       .  S
S311        H314   1.395   1_556  S
S312        H313   1.408       .  S
H315        C658   1.083       .  S
C317        C318   1.437       .  A
C317        C322   1.442       .  A
C318        C319   1.388       .  A
C318        H327   1.080       .  S
C319        C320   1.393       .  A
C319       S1027   1.808       .  S
C320        C321   1.401       .  A
C321        C322   1.401       .  A
C321        H328   1.085       .  S
C322        S324   1.809       .  S
S323       C1023   1.807   1_545  S
S323        H326   1.401       .  S
S324        H325   1.390       .  S
C329        C330   1.391       .  A
C329        C334   1.413       .  A
C330        C331   1.402       .  A
C330       H1043   1.084       .  S
C331        C332   1.446       .  A
C331       S1039   1.803       .  S
C332        C333   1.419       .  A
C333        C334   1.404       .  A
C333        H692   1.083       .  S
C334        S688   1.801   1_554  S
S335       C1035   1.804   1_545  S
S335        H338   1.408       .  S
S336        C686   1.801       .  S
S336        H337   1.408       .  S
H339       C1034   1.084   1_545  S
H340        C685   1.083       .  S
C341        C342   1.399       .  A
C341        C346   1.415       .  A
C342        C343   1.410       .  A
C342       H2111   1.083       .  S
C343        C344   1.436       .  A
C343       S2107   1.811       .  S
C344        C345   1.417       .  A
C345        C346   1.408       .  A
C345        H352   1.080       .  S
C346        S348   1.802       .  S
S347       C2103   1.812       .  S
S347        H702   1.406       .  S
S348        H349   1.403       .  S
H350        S699   1.406       .  S
H351       C2102   1.083       .  S
O353        C363   1.268       .  A
O353       V1769   1.901   1_455  S
O354        V361   1.898       .  S
O355        C365   1.261       .  A
O355        V361   1.883       .  S
O356       V1065   1.903   1_545  S
O357        C366   1.270       .  A
O357       V1066   1.921   1_545  S
O358        V362   1.908       .  S
O359        C364   1.261       .  A
O359        V362   1.878       .  S
O360       V1770   1.901   1_455  S
V361       O1761   1.902       .  S
V361       O1060   1.902       .  S
V362       O1061   1.920       .  S
V362       O1768   1.902       .  S
C363        C681   1.487       .  S
C364        C672   1.460       .  S
C365        C657   1.480       .  S
C366        C693   1.487       .  S
O367        C377   1.266       .  A
O367        V375   1.893       .  S
O368        C378   1.264       .  A
O368        V375   1.906       .  S
O369        C379   1.263       .  A
O369        V375   1.890       .  S
O370        C380   1.266       .  A
O370        V375   1.896       .  S
O371        C380   1.271       .  A
O371        V376   1.932       .  S
O372        C379   1.269       .  A
O372        V376   1.913       .  S
O373        C378   1.260       .  A
O373        V376   1.879       .  S
O374        C377   1.260       .  A
O374        V376   1.892       .  S
V375        V376   2.084       .  T
C377        C633   1.471       .  S
C378        C621   1.462       .  S
C379        C609   1.497       .  S
C380        C648   1.514       .  S
C381       C1289   1.566       .  S
C381        C597   1.583       .  S
C381        C684   1.582       .  S
C382        C537   1.583       .  S
C382        C549   1.572       .  S
C382        C561   1.587       .  S
C382        C588   1.583       .  S
C383        C525   1.586       .  S
C383        C576   1.566       .  S
C383        C636   1.574       .  S
C383        C669   1.576       .  S
C384        C513   1.600       .  S
C384        C528   1.574       .  S
C384        C552   1.577       .  S
C384        C624   1.559       .  S
O385        C395   1.275       .  A
O385       V1097   1.940       .  S
O386        C396   1.273       .  A
O386        V393   1.934       .  S
O387        C397   1.256       .  A
O387        V393   1.882       .  S
O388        C398   1.263       .  A
O388       V1801   1.897       .  S
O389       C1806   1.269       .  A
O389        V394   1.917   1_655  S
O390        C397   1.268       .  A
O390        V394   1.892       .  S
O391        C396   1.262       .  A
O391        V394   1.898       .  S
O392        C395   1.263       .  A
O392       V1098   1.899       .  S
V393       O1089   1.938   1_545  S
V393       O1796   1.896   1_455  S
V393        V394   2.084       .  T
V394       O1096   1.899   1_545  S
C395        C501   1.508       .  S
C396        C492   1.496       .  S
C397        C564   1.474       .  S
C398       O1797   1.268       .  A
C398        C516   1.484       .  S
O399        C409   1.267       .  A
O399        V407   1.912       .  S
O400        C410   1.267       .  A
O400        V407   1.904       .  S
O401        C411   1.262       .  A
O401        V407   1.896       .  S
O402        C412   1.262       .  A
O402        V407   1.899       .  S
O403        C412   1.268       .  A
O403        V408   1.917       .  S
O404        C411   1.267       .  A
O404        V408   1.911       .  S
O405        C410   1.259       .  A
O405        V408   1.887       .  S
O406        C409   1.262       .  A
O406        V408   1.894       .  S
V407        V408   2.088       .  T
C409        C540   1.475       .  S
C410        C600   1.470       .  S
C411        C468   1.478       .  S
C412        C477   1.482       .  S
C413        C441   1.563       .  S
C413        C453   1.599       .  S
C413        C489   1.616       .  S
C413        C645   1.617       .  S
C414       C1852   1.600       .  S
C414        C612   1.606       .  S
C414        C696   1.560       .  S
C415        C420   1.612       .  S
C415        C456   1.600       .  S
C415        C465   1.583       .  S
C415        C504   1.598       .  S
C416        C417   1.604       .  S
C416        C432   1.608       .  S
C416        C480   1.606       .  S
C416        C660   1.587       .  S
C417        C418   1.430       .  A
C417        C422   1.413       .  A
C418        C419   1.415       .  A
C418        H427   1.074       .  S
C419       C1828   1.431       .  A
C419        S423   1.797       .  S
C420       C1827   1.432   1_455  A
C420        C421   1.436       .  A
C421       C1830   1.406       .  A
C421        H428   1.078       .  S
C422       C1829   1.405       .  A
C422        S424   1.798       .  S
S423        H426   1.402       .  S
S424        H425   1.406       .  S
C429        C430   1.417       .  A
C429        C434   1.416       .  A
C430        C431   1.428       .  A
C431        C432   1.453       .  A
C431        S435   1.819       .  S
C432        C433   1.409       .  A
C433        C434   1.389       .  A
C433        H440   1.057       .  S
C434        S436   1.819       .  S
S435        H438   1.407       .  S
S436        H437   1.405       .  S
C441        C442   1.409       .  A
C441        C446   1.425       .  A
C442        C443   1.386       .  A
C442        H451   1.081       .  S
C443        C444   1.439   1_455  A
C443        S447   1.816       .  S
C444       C1822   1.596       .  S
C444        C445   1.430       .  A
C445        C446   1.415   1_655  A
C445       H1860   1.083       .  S
C446        S448   1.798       .  S
S447        H450   1.409       .  S
S448        H449   1.402       .  S
H452       C1853   1.083       .  S
C453        C454   1.421       .  A
C453        C458   1.412       .  A
C454        C455   1.423       .  A
C454        H463   1.071   1_455  S
C455        C456   1.422       .  A
C455       S1867   1.798   1_455  S
C456        C457   1.430       .  A
C457        C458   1.397       .  A
C457        H464   1.078       .  S
C458        S460   1.814       .  S
S459       C1863   1.798       .  S
S459        H462   1.405       .  S
S460        H461   1.407       .  S
C465        C466   1.423       .  A
C465        C470   1.428       .  A
C466        C467   1.392       .  A
C466        H475   1.080       .  S
C467        C468   1.402       .  A
C467        S471   1.800       .  S
C468        C469   1.405       .  A
C469        C470   1.409       .  A
C469        H476   1.083       .  S
C470        S472   1.810       .  S
S471        H474   1.401       .  S
S472        H473   1.406       .  S
C477        C478   1.394       .  A
C477        C482   1.402       .  A
C478        C479   1.408       .  A
C478        H487   1.084       .  S
C479        C480   1.456       .  A
C479        S483   1.828       .  S
C480        C481   1.427       .  A
C481        C482   1.400       .  A
C481        H488   1.076       .  S
C482        S484   1.804       .  S
S483        H486   1.397       .  S
S484        H485   1.405       .  S
C489        C490   1.424       .  A
C489        C494   1.452       .  A
C490        C491   1.403       .  A
C490        H499   1.071       .  S
C491        C492   1.408       .  A
C491        S495   1.798       .  S
C492        C493   1.389       .  A
C493        C494   1.414       .  A
C493       H1908   1.084   1_455  S
C494       S1904   1.799   1_455  S
S495        H498   1.398       .  S
S496       C1902   1.801       .  S
S496       H1905   1.408       .  S
H497       S1904   1.408       .  S
H500       C1901   1.084       .  S
C501        C502   1.398   1_455  A
C501        C506   1.413       .  A
C502        C503   1.422       .  A
C502       H1919   1.083       .  S
C503        C504   1.445   1_655  A
C503       S1915   1.800       .  S
C504        C505   1.420       .  A
C505        C506   1.404       .  A
C505        H512   1.075       .  S
C506        S508   1.803       .  S
S507       C1911   1.800       .  S
S507        H510   1.407       .  S
S508        H509   1.406       .  S
H511       C1910   1.083       .  S
C513        C514   1.426       .  A
C513        C518   1.435       .  A
C514        C515   1.400       .  A
C514       H1227   1.079   1_545  S
C515        C516   1.403       .  A
C515       S1223   1.804   1_545  S
C516        C517   1.400       .  A
C517        C518   1.409       .  A
C517        H524   1.082       .  S
C518        S520   1.805       .  S
S519       C1219   1.804       .  S
S519        H522   1.407       .  S
S520        H521   1.406       .  S
H523       C1218   1.080       .  S
C525        C526   1.419       .  A
C525        C530   1.439       .  A
C526        C527   1.414       .  A
C526        H535   1.072       .  S
C527       C1232   1.420       .  A
C527       S1235   1.791       .  S
C528       C1231   1.422   1_545  A
C528       C1233   1.412       .  A
C529       C1232   1.409       .  A
C529        C530   1.380       .  A
C529       H1240   1.085       .  S
C530        S532   1.805       .  S
S531       C1231   1.791       .  S
S531        H534   1.407       .  S
S532        H533   1.403       .  S
H536       C1233   1.082       .  S
C537        C538   1.421       .  A
C537        C542   1.435       .  A
C538        C539   1.389       .  A
C538        H547   1.077       .  S
C539        C540   1.398       .  A
C539        S543   1.795       .  S
C540        C541   1.398       .  A
C541        C542   1.413       .  A
C541        H548   1.083       .  S
C542        S544   1.805       .  S
S543        H546   1.399       .  S
S544        H545   1.407       .  S
C549        C550   1.408       .  A
C549        C554   1.431       .  A
C550        C551   1.377       .  A
C550        H559   1.079       .  S
C551        C552   1.436       .  A
C551        S555   1.818       .  S
C552        C553   1.426       .  A
C553        C554   1.421       .  A
C553        H560   1.083   1_545  S
C554       S1260   1.802   1_545  S
S555        H558   1.410       .  S
S556       C1258   1.804       .  S
S556       H1261   1.398       .  S
H557       S1260   1.397   1_545  S
C561        C562   1.415       .  A
C561        C566   1.443       .  A
C562        C563   1.400       .  A
C562        H571   1.082       .  S
C563        C564   1.414       .  A
C563        S567   1.804       .  S
C564        C565   1.386       .  A
C565        C566   1.387       .  A
C565        H572   1.084       .  S
C566        S568   1.805   1_545  S
S567        H570   1.405       .  S
S568        H569   1.408       .  S
C573        C574   1.417       .  A
C573        C578   1.445   1_554  A
C574        C575   1.366   1_554  A
C574        H583   1.073       .  S
C575        C576   1.416       .  A
C575        S579   1.809       .  S
C576        C577   1.419       .  A
C577        C578   1.432       .  A
C577        H584   1.083       .  S
C578       S1284   1.805       .  S
S579        H582   1.409   1_556  S
S580       C1282   1.805   1_545  S
C585       C1085   1.566       .  S
C585        C586   1.409   1_565  A
C585       C1294   1.438       .  A
C586        C587   1.416       .  A
C586        H595   1.078       .  S
C587        C588   1.449       .  A
C587        S591   1.797       .  S
C588        C589   1.403   1_545  A
C589       C1294   1.384       .  A
C589       H1300   1.071       .  S
C590       C1289   1.437       .  A
C590       C1293   1.382       .  A
C590        S592   1.816       .  S
S591        H594   1.406       .  S
S592        H593   1.397       .  S
H596       C1293   1.072       .  S
C597        C598   1.414       .  A
C597        C602   1.449       .  A
C598        C599   1.399       .  A
C598        H607   1.076       .  S
C599        C600   1.411       .  A
C599        S603   1.799       .  S
C600        C601   1.387       .  A
C601        C602   1.395       .  A
C601        H608   1.083       .  S
C602        S604   1.817       .  S
S603        H606   1.407       .  S
S604        H605   1.407       .  S
C609        C610   1.403       .  A
C609        C614   1.405       .  A
C610        C611   1.406       .  A
C610        H619   1.083       .  S
C611        C612   1.433       .  A
C611        S615   1.796       .  S
C612        C613   1.428       .  A
C613        C614   1.399       .  A
C613        H620   1.077       .  S
C614        S616   1.802       .  S
S615        H618   1.408   1_556  S
S616        H617   1.404       .  S
C621        C622   1.387       .  A
C621        C626   1.404       .  A
C622        C623   1.402       .  A
C622        H631   1.084       .  S
C623        C624   1.447       .  A
C623        S627   1.805       .  S
C624        C625   1.405       .  A
C625        C626   1.384       .  A
C625        H632   1.078       .  S
C626        S628   1.786       .  S
S627        H630   1.408       .  S
S628        H629   1.404       .  S
C633        C634   1.387       .  A
C633        C638   1.412       .  A
C634        C635   1.390       .  A
C634        H643   1.085       .  S
C635        C636   1.449       .  A
C635        S639   1.819       .  S
C636        C637   1.411       .  A
C637        C638   1.403       .  A
C637        H644   1.080       .  S
C638        S640   1.798       .  S
S639        H642   1.396       .  S
S640        H641   1.404       .  S
C645        C646   1.431       .  A
C645        C650   1.453       .  A
C646        C647   1.414       .  A
C646        H655   1.084       .  S
C647        C648   1.412       .  A
C647        S651   1.794       .  S
C648        C649   1.398       .  A
C649        C650   1.405       .  A
C649        H656   1.083       .  S
C650        S652   1.814       .  S
S651        H654   1.407       .  S
S652        H653   1.408       .  S
C657        C658   1.405       .  A
C657        C662   1.403       .  A
C658        C659   1.412       .  A
C659        C660   1.442       .  A
C659        S663   1.814       .  S
C660        C661   1.415       .  A
C661        C662   1.389       .  A
C661        H668   1.067       .  S
C662        S664   1.807       .  S
S663        H666   1.395       .  S
S664        H665   1.408       .  S
C669        C670   1.436       .  A
C669        C674   1.443       .  A
C670        C671   1.388       .  A
C670        H679   1.080       .  S
C671        C672   1.394       .  A
C671       S1379   1.808   1_556  S
C672        C673   1.400       .  A
C673        C674   1.402       .  A
C673        H680   1.085       .  S
C674        S676   1.810       .  S
S675       C1375   1.809   1_544  S
S675        H678   1.399       .  S
S676        H677   1.389       .  S
C681        C682   1.391       .  A
C681        C686   1.412       .  A
C682        C683   1.399       .  A
C682       H1395   1.084       .  S
C683        C684   1.445       .  A
C683       S1391   1.804       .  S
C684        C685   1.419       .  A
C685        C686   1.404       .  A
S687       C1387   1.807   1_545  S
S687        H690   1.408       .  S
S688        H689   1.408       .  S
H691       C1386   1.084       .  S
C693        C694   1.398       .  A
C693        C698   1.414       .  A
C694        C695   1.409       .  A
C694       H1759   1.083       .  S
C695        C696   1.437       .  A
C695       S1755   1.812       .  S
C696        C697   1.416       .  A
C697        C698   1.406       .  A
C697        H704   1.080       .  S
C698        S700   1.802       .  S
S699       C1751   1.812       .  S
S700        H701   1.403       .  S
H703       C1750   1.083       .  S
O705        C715   1.268       .  A
O705       V2121   1.905   1_455  S
O706       C1068   1.263   1_554  A
O706        V713   1.900       .  S
O707        C717   1.261       .  A
O707        V713   1.881       .  S
O708       C1070   1.263   1_554  A
O709        C718   1.270       .  A
O710       C1069   1.267       .  A
O710        V714   1.914       .  S
O711        C716   1.261       .  A
O711        V714   1.877       .  S
O712       C1067   1.263       .  A
O712       V2122   1.903   1_455  S
V713       O2113   1.906       .  S
V713       V1066   2.086   1_554  T
V714       O2120   1.905       .  S
V714       V1065   2.086       .  T
C715       O1064   1.264   1_554  A
C715       C1033   1.491       .  S
C716       O1058   1.262       .  A
C716       C1024   1.460       .  S
C717       O1062   1.267   1_554  A
C717       C1009   1.478       .  S
C718       O1060   1.263       .  A
C718       C1045   1.488       .  S
O719        C729   1.265       .  A
O719        V727   1.891       .  S
O720        C730   1.263       .  A
O720        V727   1.904       .  S
O721        C731   1.262       .  A
O721        V727   1.888       .  S
O722        C732   1.266       .  A
O722        V727   1.893       .  S
O723        C732   1.271       .  A
O723        V728   1.931       .  S
O724        C731   1.268       .  A
O724        V728   1.912       .  S
O725        C730   1.261       .  A
O725        V728   1.883       .  S
O726        C729   1.261       .  A
O726        V728   1.896       .  S
V727        V728   2.084       .  T
C729        C985   1.472       .  S
C730        C973   1.462       .  S
C731        C961   1.495       .  S
C732       C1000   1.512       .  S
C733       C1277   1.607       .  S
C733        C949   1.583       .  S
C733       C1036   1.587       .  S
C734        C889   1.581       .  S
C734        C901   1.573       .  S
C734        C913   1.586       .  S
C734        C940   1.582       .  S
C735        C877   1.588       .  S
C735        C928   1.567       .  S
C735        C988   1.575       .  S
C735       C1021   1.576       .  S
C736        C865   1.598       .  S
C736        C880   1.572       .  S
C736        C904   1.574       .  S
C736        C976   1.561       .  S
O737        C747   1.276       .  A
O738        C748   1.273       .  A
O738        V745   1.935       .  S
O739        C749   1.257       .  A
O739        V745   1.885       .  S
O740        C750   1.263       .  A
O740       V2153   1.898       .  S
O741       C2158   1.269       .  A
O741        V746   1.916   1_655  S
O742        C749   1.267       .  A
O742        V746   1.891       .  S
O743        C748   1.263       .  A
O743        V746   1.899       .  S
O744        C747   1.263       .  A
V745       O2148   1.899   1_455  S
V745        V746   2.084       .  T
C747        C853   1.513       .  S
C748        C844   1.497       .  S
C749        C916   1.472       .  S
C750       O2149   1.268       .  A
C750        C868   1.485       .  S
O751        C761   1.266       .  A
O751        V759   1.911       .  S
O752        C762   1.267       .  A
O752        V759   1.902       .  S
O753        C763   1.262       .  A
O753        V759   1.895       .  S
O754        C764   1.262       .  A
O754        V759   1.896       .  S
O755        C764   1.268       .  A
O755        V760   1.917       .  S
O756        C763   1.268       .  A
O756        V760   1.914       .  S
O757        C762   1.259       .  A
O757        V760   1.887       .  S
O758        C761   1.262       .  A
O758        V760   1.894       .  S
V759        V760   2.088       .  T
C761        C892   1.473       .  S
C762        C952   1.470       .  S
C763        C820   1.479       .  S
C764        C829   1.479       .  S
C765        C793   1.565       .  S
C765        C805   1.601       .  S
C765        C841   1.617       .  S
C765        C997   1.615       .  S
C766       C1133   1.602       .  S
C766       C2204   1.599       .  S
C766        C964   1.603       .  S
C766       C1048   1.561       .  S
C767        C772   1.617       .  S
C767        C808   1.601       .  S
C767        C817   1.585       .  S
C767        C856   1.604       .  S
C768        C769   1.603       .  S
C768        C784   1.608       .  S
C768        C832   1.603       .  S
C768       C1012   1.586       .  S
C769        C770   1.430       .  A
C769        C774   1.412       .  A
C770        C771   1.416       .  A
C770        H779   1.075       .  S
C771       C2180   1.431       .  A
C771        S775   1.797       .  S
C772       C2179   1.432   1_455  A
C772        C773   1.438       .  A
C773       C2182   1.405       .  A
C773        H780   1.078       .  S
C774       C2181   1.406       .  A
C774        S776   1.799       .  S
S775        H778   1.403       .  S
S776        H777   1.406       .  S
C781       C1118   1.602       .  S
C781        C782   1.417       .  A
C781        C786   1.419   1_556  A
C782        C783   1.427   1_556  A
C782       H1143   1.073       .  S
C783        C784   1.453       .  A
C783        S787   1.819       .  S
C784        C785   1.410       .  A
C785        C786   1.387       .  A
C785        H792   1.058       .  S
C786        S788   1.816       .  S
S787        H790   1.406   1_554  S
S788        H789   1.394       .  S
H791       C1134   1.074       .  S
C793        C794   1.408       .  A
C793        C798   1.425       .  A
C794        C795   1.388       .  A
C794        H803   1.081       .  S
C795        C796   1.440   1_455  A
C795        S799   1.814       .  S
C796       C2174   1.598       .  S
C796        C797   1.430       .  A
C797        C798   1.416   1_655  A
C797       H2212   1.083       .  S
C798        S800   1.797       .  S
S799        H802   1.410       .  S
S800        H801   1.402       .  S
H804       C2205   1.083       .  S
C805        C806   1.421       .  A
C805        C810   1.414       .  A
C806        C807   1.424       .  A
C806        H815   1.071   1_455  S
C807        C808   1.421       .  A
C807       S2219   1.798   1_455  S
C808        C809   1.429       .  A
C809        C810   1.397       .  A
C809        H816   1.078       .  S
C810        S812   1.814       .  S
S811       C2215   1.798       .  S
S811        H814   1.405       .  S
S812        H813   1.407       .  S
C817        C818   1.425       .  A
C817        C822   1.428       .  A
C818        C819   1.394       .  A
C818        H827   1.081       .  S
C819        C820   1.402       .  A
C819        S823   1.800       .  S
C820        C821   1.405       .  A
C821        C822   1.409       .  A
C821        H828   1.082       .  S
C822        S824   1.810       .  S
S823        H826   1.402       .  S
S824        H825   1.406       .  S
C829        C830   1.394       .  A
C829        C834   1.402       .  A
C830        C831   1.407       .  A
C830        H839   1.085       .  S
C831        C832   1.454       .  A
C831        S835   1.827       .  S
C832        C833   1.427       .  A
C833        C834   1.400       .  A
C833        H840   1.076       .  S
C834        S836   1.805       .  S
S835        H838   1.397       .  S
S836        H837   1.404       .  S
C841        C842   1.425       .  A
C841        C846   1.452       .  A
C842        C843   1.403       .  A
C842        H851   1.071       .  S
C843        C844   1.408       .  A
C843        S847   1.799       .  S
C844        C845   1.390       .  A
C845        C846   1.415       .  A
C845       H2260   1.084   1_455  S
C846       S2256   1.801   1_455  S
S847        H850   1.397       .  S
S848       C2254   1.799       .  S
S848       H2257   1.408       .  S
H849       S2256   1.408       .  S
H852       C2253   1.084       .  S
C853        C854   1.399   1_455  A
C853        C858   1.414       .  A
C854        C855   1.424   1_655  A
C854       H2271   1.083       .  S
C855        C856   1.446       .  A
C855       S2267   1.797   1_455  S
C856        C857   1.421       .  A
C857        C858   1.407       .  A
C857        H864   1.074       .  S
C858        S860   1.803       .  S
S859       C2263   1.799       .  S
S859        H862   1.407       .  S
S860        H861   1.406       .  S
H863       C2262   1.083       .  S
C865        C866   1.427       .  A
C865        C870   1.434       .  A
C866        C867   1.403       .  A
C867        C868   1.405       .  A
C868        C869   1.398       .  A
C869        C870   1.407       .  A
C869        H876   1.083       .  S
C870        S872   1.802       .  S
S871        H874   1.407       .  S
S872        H873   1.407       .  S
C877        C878   1.419       .  A
C877        C882   1.440       .  A
C878        C879   1.415       .  A
C878        H887   1.072       .  S
C881        C882   1.381   1_545  A
C882        S884   1.803       .  S
S883        H886   1.407       .  S
S884        H885   1.404       .  S
C889        C890   1.422       .  A
C889        C894   1.435       .  A
C890        C891   1.388       .  A
C890        H899   1.077       .  S
C891        C892   1.394       .  A
C891        S895   1.793       .  S
C892        C893   1.398       .  A
C893        C894   1.413       .  A
C893        H900   1.083       .  S
C894        S896   1.805       .  S
S895        H898   1.404       .  S
S896        H897   1.407       .  S
C901        C902   1.409       .  A
C901        C906   1.432       .  A
C902        C903   1.376       .  A
C902        H911   1.077       .  S
C903        C904   1.433       .  A
C903        S907   1.820       .  S
C904        C905   1.426       .  A
C905        C906   1.420       .  A
C905        H912   1.083       .  S
S907        H910   1.409       .  S
C913        C914   1.414       .  A
C913        C918   1.443       .  A
C914        C915   1.400       .  A
C914        H923   1.081       .  S
C915        C916   1.413       .  A
C915        S919   1.805       .  S
C916        C917   1.387       .  A
C917        C918   1.387       .  A
C917        H924   1.084       .  S
C918        S920   1.805       .  S
S919        H922   1.403       .  S
S920        H921   1.408       .  S
C925       C1085   1.610       .  S
C925        C926   1.419       .  A
C925        C930   1.446       .  A
C926        C927   1.370       .  A
C926        H935   1.071       .  S
C927        C928   1.417       .  A
C927        S931   1.811       .  S
C928        C929   1.417       .  A
C929        C930   1.431       .  A
C929        H936   1.082   1_565  S
S931        H934   1.408       .  S
S932       H1285   1.380       .  S
H933       S1284   1.382   1_554  S
C937        C938   1.410       .  A
C938        C939   1.416       .  A
C938        H947   1.077       .  S
C939        C940   1.449       .  A
C939        S943   1.798       .  S
C940        C941   1.402       .  A
C942        S944   1.816       .  S
S943        H946   1.405       .  S
S944        H945   1.397       .  S
C949        C950   1.417       .  A
C949        C954   1.451       .  A
C950        C951   1.403       .  A
C950        H959   1.073       .  S
C951        C952   1.410       .  A
C951        S955   1.809       .  S
C952        C953   1.386       .  A
C953        C954   1.391       .  A
C953        H960   1.085       .  S
C954        S956   1.816       .  S
S955        H958   1.407       .  S
S956        H957   1.397       .  S
C961        C962   1.403       .  A
C961        C966   1.405       .  A
C962        C963   1.404       .  A
C962        H971   1.083       .  S
C963        C964   1.431       .  A
C963        S967   1.798       .  S
C964        C965   1.427       .  A
C965        C966   1.400       .  A
C965        H972   1.076       .  S
C966        S968   1.802       .  S
S967        H970   1.408       .  S
S968        H969   1.404       .  S
C973        C974   1.387       .  A
C973        C978   1.403       .  A
C974        C975   1.402       .  A
C974        H983   1.084       .  S
C975        C976   1.447       .  A
C975        S979   1.805       .  S
C976        C977   1.407       .  A
C977        C978   1.384       .  A
C977        H984   1.078       .  S
C978        S980   1.786       .  S
S979        H982   1.408       .  S
S980        H981   1.404       .  S
C985        C986   1.388       .  A
C985        C990   1.412       .  A
C986        C987   1.390       .  A
C986        H995   1.085       .  S
C987        C988   1.448       .  A
C987        S991   1.818       .  S
C988        C989   1.413       .  A
C989        C990   1.404       .  A
C989        H996   1.081       .  S
C990        S992   1.798       .  S
S991        H994   1.397       .  S
S992        H993   1.405       .  S
C997        C998   1.431       .  A
C997       C1002   1.452       .  A
C998        C999   1.413       .  A
C998       H1007   1.084       .  S
C999       C1000   1.411       .  A
C999       S1003   1.795       .  S
C1000      C1001   1.398       .  A
C1001      C1002   1.404       .  A
C1001      H1008   1.083       .  S
C1002      S1004   1.814       .  S
S1003      H1006   1.407       .  S
S1004      H1005   1.408       .  S
C1009      C1010   1.404       .  A
C1009      C1014   1.402       .  A
C1010      C1011   1.410       .  A
C1010      H1371   1.083   1_554  S
C1011      C1012   1.443       .  A
C1011      S1015   1.815   1_554  S
C1012      C1013   1.417       .  A
C1013      C1014   1.388       .  A
C1013      H1020   1.068       .  S
C1014      S1016   1.807       .  S
S1015      H1018   1.395   1_556  S
S1016      H1017   1.408       .  S
H1019      C1362   1.083       .  S
C1021      C1022   1.436       .  A
C1021      C1026   1.443       .  A
C1022      C1023   1.388       .  A
C1022      H1031   1.080       .  S
C1023      C1024   1.393       .  A
C1024      C1025   1.400       .  A
C1025      C1026   1.402       .  A
C1025      H1032   1.085       .  S
C1026      S1028   1.809       .  S
S1027      H1030   1.400       .  S
S1028      H1029   1.390       .  S
C1033      C1034   1.392       .  A
C1033      C1038   1.412       .  A
C1034      C1035   1.402       .  A
C1035      C1036   1.446       .  A
C1036      C1037   1.420       .  A
C1037      C1038   1.404       .  A
C1037      H1396   1.083       .  S
C1038      S1392   1.801   1_554  S
S1039      H1042   1.408       .  S
S1040      C1390   1.801       .  S
S1040      H1041   1.408       .  S
H1044      C1389   1.083       .  S
C1045      C1046   1.399       .  A
C1045      C1050   1.413       .  A
C1046      C1047   1.410       .  A
C1046      H2815   1.083       .  S
C1047      C1048   1.437       .  A
C1047      S2811   1.812       .  S
C1048      C1049   1.416       .  A
C1049      C1050   1.406       .  A
C1049      H1056   1.080       .  S
C1050      S1052   1.802       .  S
S1051      C2807   1.813       .  S
S1051      H1406   1.406       .  S
S1052      H1053   1.404       .  S
H1054      S1403   1.406       .  S
H1055      C2806   1.083       .  S
O1057      C1067   1.268       .  A
O1057      V2473   1.900   1_455  S
O1058      V1065   1.896       .  S
O1059      C1069   1.261       .  A
O1059      V1065   1.882       .  S
O1061      C1070   1.269       .  A
O1062      V1066   1.910       .  S
O1063      C1068   1.261       .  A
O1063      V1066   1.880       .  S
O1064      V2474   1.903   1_455  S
V1065      O2465   1.901       .  S
V1066      O2472   1.904       .  S
C1067      C1385   1.489       .  S
C1068      C1376   1.462       .  S
C1069      C1361   1.482       .  S
C1070      C1397   1.485       .  S
O1071      C1081   1.265       .  A
O1071      V1079   1.891       .  S
O1072      C1082   1.262       .  A
O1072      V1079   1.901       .  S
O1073      C1083   1.262       .  A
O1073      V1079   1.890       .  S
O1074      C1084   1.266       .  A
O1074      V1079   1.895       .  S
O1075      C1084   1.272       .  A
O1075      V1080   1.934       .  S
O1076      C1083   1.269       .  A
O1076      V1080   1.913       .  S
O1077      C1082   1.261       .  A
O1077      V1080   1.879       .  S
O1078      C1081   1.260       .  A
O1078      V1080   1.896       .  S
V1079      V1080   2.084       .  T
C1081      C1337   1.472       .  S
C1082      C1325   1.459       .  S
C1083      C1313   1.496       .  S
C1084      C1352   1.515       .  S
C1085      C1301   1.581       .  S
C1085      C1388   1.586       .  S
C1086      C1241   1.584       .  S
C1086      C1253   1.569       .  S
C1086      C1265   1.589       .  S
C1086      C1292   1.580       .  S
C1087      C1229   1.582       .  S
C1087      C1280   1.564       .  S
C1087      C1340   1.570       .  S
C1087      C1373   1.578       .  S
C1088      C1217   1.598       .  S
C1088      C1232   1.572       .  S
C1088      C1256   1.575       .  S
C1088      C1328   1.557       .  S
O1089      C1099   1.275       .  A
O1090      C1100   1.273       .  A
O1090      V1097   1.936       .  S
O1091      C1101   1.257       .  A
O1091      V1097   1.885       .  S
O1092      C1102   1.262       .  A
O1092      V2505   1.897       .  S
O1093      C2510   1.269       .  A
O1093      V1098   1.915   1_655  S
O1094      C1101   1.268       .  A
O1094      V1098   1.892       .  S
O1095      C1100   1.262       .  A
O1095      V1098   1.896       .  S
O1096      C1099   1.263       .  A
V1097      O2500   1.898   1_455  S
V1097      V1098   2.084       .  T
C1099      C1205   1.507       .  S
C1100      C1196   1.496       .  S
C1101      C1268   1.475       .  S
C1102      O2501   1.268       .  A
C1102      C1220   1.483       .  S
O1103      C1113   1.267       .  A
O1103      V1111   1.911       .  S
O1104      C1114   1.266       .  A
O1104      V1111   1.900       .  S
O1105      C1115   1.262       .  A
O1105      V1111   1.895       .  S
O1106      C1116   1.262       .  A
O1106      V1111   1.900       .  S
O1107      C1116   1.269       .  A
O1107      V1112   1.918       .  S
O1108      C1115   1.267       .  A
O1108      V1112   1.911       .  S
O1109      C1114   1.259       .  A
O1109      V1112   1.886       .  S
O1110      C1113   1.262       .  A
O1110      V1112   1.894       .  S
V1111      V1112   2.088       .  T
C1113      C1244   1.473       .  S
C1114      C1304   1.468       .  S
C1115      C1172   1.478       .  S
C1116      C1181   1.483       .  S
C1117      C1145   1.565       .  S
C1117      C1157   1.600       .  S
C1117      C1193   1.618       .  S
C1117      C1349   1.617       .  S
C1118      C2556   1.599       .  S
C1118      C1316   1.606       .  S
C1118      C1400   1.559       .  S
C1119      C1124   1.610       .  S
C1119      C1160   1.602       .  S
C1119      C1169   1.583       .  S
C1119      C1208   1.596       .  S
C1120      C1121   1.602       .  S
C1120      C1136   1.607       .  S
C1120      C1184   1.606       .  S
C1120      C1364   1.586       .  S
C1121      C1122   1.429       .  A
C1121      C1126   1.412       .  A
C1122      C1123   1.415       .  A
C1122      H1131   1.074       .  S
C1123      C2532   1.433       .  A
C1123      S1127   1.797       .  S
C1124      C2531   1.434   1_455  A
C1124      C1125   1.435       .  A
C1125      C2534   1.405       .  A
C1125      H1132   1.079       .  S
C1126      C2533   1.405       .  A
C1126      S1128   1.799       .  S
S1127      H1130   1.402       .  S
S1128      H1129   1.406       .  S
C1133      C1134   1.415       .  A
C1133      C1138   1.420       .  A
C1134      C1135   1.427       .  A
C1135      C1136   1.454       .  A
C1135      S1139   1.819       .  S
C1136      C1137   1.408       .  A
C1137      C1138   1.389       .  A
C1137      H1144   1.057       .  S
C1138      S1140   1.821       .  S
S1139      H1142   1.407       .  S
S1140      H1141   1.406       .  S
C1145      C1146   1.409       .  A
C1145      C1150   1.426       .  A
C1146      C1147   1.387       .  A
C1146      H1155   1.081       .  S
C1147      C1148   1.439   1_455  A
C1147      S1151   1.817       .  S
C1148      C2526   1.599       .  S
C1148      C1149   1.429       .  A
C1149      C1150   1.416   1_655  A
C1149      H2564   1.083       .  S
C1150      S1152   1.798       .  S
S1151      H1154   1.409       .  S
S1152      H1153   1.402       .  S
H1156      C2557   1.083       .  S
C1157      C1158   1.422       .  A
C1157      C1162   1.414       .  A
C1158      C1159   1.423       .  A
C1158      H1167   1.071   1_455  S
C1159      C1160   1.422       .  A
C1159      S2571   1.798   1_455  S
C1160      C1161   1.430       .  A
C1161      C1162   1.398       .  A
C1161      H1168   1.078       .  S
C1162      S1164   1.815       .  S
S1163      C2567   1.798       .  S
S1163      H1166   1.405       .  S
S1164      H1165   1.407       .  S
C1169      C1170   1.423       .  A
C1169      C1174   1.429       .  A
C1170      C1171   1.391       .  A
C1170      H1179   1.080       .  S
C1171      C1172   1.400       .  A
C1171      S1175   1.797       .  S
C1172      C1173   1.405       .  A
C1173      C1174   1.409       .  A
C1173      H1180   1.083       .  S
C1174      S1176   1.810       .  S
S1175      H1178   1.402       .  S
S1176      H1177   1.406       .  S
C1181      C1182   1.395       .  A
C1181      C1186   1.402       .  A
C1182      C1183   1.410       .  A
C1182      H1191   1.084       .  S
C1183      C1184   1.456       .  A
C1183      S1187   1.827       .  S
C1184      C1185   1.427       .  A
C1185      C1186   1.400       .  A
C1185      H1192   1.076       .  S
C1186      S1188   1.804       .  S
S1187      H1190   1.397       .  S
S1188      H1189   1.405       .  S
C1193      C1194   1.423       .  A
C1193      C1198   1.452       .  A
C1194      C1195   1.402       .  A
C1194      H1203   1.071       .  S
C1195      C1196   1.408       .  A
C1195      S1199   1.798       .  S
C1196      C1197   1.390       .  A
C1197      C1198   1.416       .  A
C1197      H2612   1.084   1_455  S
C1198      S2608   1.799   1_455  S
S1199      H1202   1.398       .  S
S1200      C2606   1.800       .  S
S1200      H2609   1.408       .  S
H1201      S2608   1.408       .  S
H1204      C2605   1.084       .  S
C1205      C1206   1.398   1_455  A
C1205      C1210   1.413       .  A
C1206      C1207   1.420       .  A
C1206      H2623   1.083       .  S
C1207      C1208   1.445   1_655  A
C1207      S2619   1.800       .  S
C1208      C1209   1.419       .  A
C1209      C1210   1.405       .  A
C1209      H1216   1.075       .  S
C1210      S1212   1.803       .  S
S1211      C2615   1.800       .  S
S1211      H1214   1.407       .  S
S1212      H1213   1.406       .  S
H1215      C2614   1.083       .  S
C1217      C1218   1.426       .  A
C1217      C1222   1.435       .  A
C1218      C1219   1.400       .  A
C1219      C1220   1.403       .  A
C1220      C1221   1.399       .  A
C1221      C1222   1.408       .  A
C1221      H1228   1.083       .  S
C1222      S1224   1.805       .  S
S1223      H1226   1.407       .  S
S1224      H1225   1.407       .  S
C1229      C1230   1.417       .  A
C1229      C1234   1.434       .  A
C1230      C1231   1.414       .  A
C1230      H1239   1.073       .  S
C1233      C1234   1.384   1_545  A
C1234      S1236   1.815       .  S
S1235      H1238   1.406       .  S
S1236      H1237   1.407   1_565  S
C1241      C1242   1.420       .  A
C1241      C1246   1.434       .  A
C1242      C1243   1.388       .  A
C1242      H1251   1.077       .  S
C1243      C1244   1.400       .  A
C1243      S1247   1.799       .  S
C1244      C1245   1.399       .  A
C1245      C1246   1.413       .  A
C1245      H1252   1.083       .  S
C1246      S1248   1.805       .  S
S1247      H1250   1.396       .  S
S1248      H1249   1.406       .  S
C1253      C1254   1.407       .  A
C1253      C1258   1.432       .  A
C1254      C1255   1.377       .  A
C1254      H1263   1.079       .  S
C1255      C1256   1.437       .  A
C1255      S1259   1.818       .  S
C1256      C1257   1.425       .  A
C1257      C1258   1.418       .  A
C1257      H1264   1.083       .  S
S1259      H1262   1.410       .  S
C1265      C1266   1.415       .  A
C1265      C1270   1.442       .  A
C1266      C1267   1.400       .  A
C1266      H1275   1.082       .  S
C1267      C1268   1.413       .  A
C1267      S1271   1.804       .  S
C1268      C1269   1.388       .  A
C1269      C1270   1.389       .  A
C1269      H1276   1.083       .  S
C1270      S1272   1.804       .  S
S1271      H1274   1.404       .  S
S1272      H1273   1.408       .  S
C1277      C1278   1.417       .  A
C1277      C1282   1.446   1_554  A
C1278      C1279   1.367   1_554  A
C1278      H1287   1.072       .  S
C1279      C1280   1.415       .  A
C1279      S1283   1.808       .  S
C1280      C1281   1.418       .  A
C1281      C1282   1.430       .  A
C1281      H1288   1.083   1_565  S
S1283      H1286   1.408   1_556  S
C1289      C1290   1.410       .  A
C1290      C1291   1.416       .  A
C1290      H1299   1.078       .  S
C1291      C1292   1.447       .  A
C1291      S1295   1.796       .  S
C1292      C1293   1.403       .  A
C1294      S1296   1.817       .  S
S1295      H1298   1.406       .  S
S1296      H1297   1.397       .  S
C1301      C1302   1.416       .  A
C1301      C1306   1.453       .  A
C1302      C1303   1.399       .  A
C1302      H1311   1.075       .  S
C1303      C1304   1.410       .  A
C1303      S1307   1.800       .  S
C1304      C1305   1.385       .  A
C1305      C1306   1.390       .  A
C1305      H1312   1.085       .  S
C1306      S1308   1.816       .  S
S1307      H1310   1.407       .  S
S1308      H1309   1.397       .  S
C1313      C1314   1.404       .  A
C1313      C1318   1.404       .  A
C1314      C1315   1.407       .  A
C1314      H1323   1.082       .  S
C1315      C1316   1.433       .  A
C1315      S1319   1.798       .  S
C1316      C1317   1.428       .  A
C1317      C1318   1.398       .  A
C1317      H1324   1.076       .  S
C1318      S1320   1.802       .  S
S1319      H1322   1.408   1_556  S
S1320      H1321   1.403       .  S
C1325      C1326   1.388       .  A
C1325      C1330   1.403       .  A
C1326      C1327   1.402       .  A
C1326      H1335   1.083       .  S
C1327      C1328   1.447       .  A
C1327      S1331   1.807       .  S
C1328      C1329   1.404       .  A
C1329      C1330   1.381       .  A
C1329      H1336   1.078       .  S
C1330      S1332   1.785       .  S
S1331      H1334   1.407       .  S
S1332      H1333   1.404       .  S
C1337      C1338   1.387       .  A
C1337      C1342   1.412       .  A
C1338      C1339   1.389       .  A
C1338      H1347   1.085       .  S
C1339      C1340   1.449       .  A
C1339      S1343   1.819       .  S
C1340      C1341   1.412       .  A
C1341      C1342   1.404       .  A
C1341      H1348   1.083       .  S
C1342      S1344   1.797       .  S
S1343      H1346   1.396       .  S
S1344      H1345   1.404       .  S
C1349      C1350   1.432       .  A
C1349      C1354   1.453       .  A
C1350      C1351   1.416       .  A
C1350      H1359   1.084       .  S
C1351      C1352   1.412       .  A
C1351      S1355   1.794       .  S
C1352      C1353   1.398       .  A
C1353      C1354   1.405       .  A
C1353      H1360   1.082       .  S
C1354      S1356   1.814       .  S
S1355      H1358   1.407       .  S
S1356      H1357   1.408       .  S
C1361      C1362   1.406       .  A
C1361      C1366   1.404       .  A
C1362      C1363   1.412       .  A
C1363      C1364   1.441       .  A
C1363      S1367   1.814       .  S
C1364      C1365   1.414       .  A
C1365      C1366   1.388       .  A
C1365      H1372   1.067       .  S
C1366      S1368   1.807       .  S
S1367      H1370   1.395       .  S
S1368      H1369   1.408       .  S
C1373      C1374   1.434       .  A
C1373      C1378   1.444       .  A
C1374      C1375   1.387       .  A
C1374      H1383   1.080       .  S
C1375      C1376   1.394       .  A
C1376      C1377   1.401       .  A
C1377      C1378   1.404       .  A
C1377      H1384   1.085       .  S
C1378      S1380   1.811       .  S
S1379      H1382   1.400   1_554  S
S1380      H1381   1.388       .  S
C1385      C1386   1.391   1_565  A
C1385      C1390   1.412       .  A
C1386      C1387   1.400   1_545  A
C1387      C1388   1.447       .  A
C1388      C1389   1.420       .  A
C1389      C1390   1.404       .  A
S1391      H1394   1.408       .  S
S1392      H1393   1.408       .  S
C1397      C1398   1.398       .  A
C1397      C1402   1.413       .  A
C1398      C1399   1.408       .  A
C1398      H2463   1.083       .  S
C1399      C1400   1.436       .  A
C1399      S2459   1.812       .  S
C1400      C1401   1.417       .  A
C1401      C1402   1.406       .  A
C1401      H1408   1.080       .  S
C1402      S1404   1.802       .  S
S1403      C2455   1.812       .  S
S1404      H1405   1.404       .  S
H1407      C2454   1.083       .  S
O1409      C1419   1.268       .  A
O1410      C1772   1.263   1_554  A
O1410      V1417   1.899       .  S
O1411      C1421   1.262       .  A
O1411      V1417   1.885       .  S
O1412      C1774   1.264   1_554  A
O1412      V2121   1.903   1_545  S
O1413      C1422   1.270       .  A
O1413      V2122   1.922   1_545  S
O1414      C1773   1.267       .  A
O1414      V1418   1.913       .  S
O1415      C1420   1.260       .  A
O1415      V1418   1.875       .  S
O1416      C1771   1.263       .  A
V1417      O2116   1.904       .  S
V1417      V1770   2.087   1_554  T
V1418      O2117   1.923       .  S
V1418      V1769   2.087       .  T
C1419      O1768   1.263   1_554  A
C1419      C1737   1.490       .  S
C1420      O1762   1.263       .  A
C1420      C1728   1.459       .  S
C1421      O1766   1.266   1_554  A
C1421      C1713   1.480       .  S
C1422      O1764   1.264       .  A
C1422      C1749   1.490       .  S
O1423      C1433   1.265       .  A
O1423      V1431   1.890       .  S
O1424      C1434   1.263       .  A
O1424      V1431   1.904       .  S
O1425      C1435   1.263       .  A
O1425      V1431   1.890       .  S
O1426      C1436   1.266       .  A
O1426      V1431   1.896       .  S
O1427      C1436   1.271       .  A
O1427      V1432   1.933       .  S
O1428      C1435   1.268       .  A
O1428      V1432   1.912       .  S
O1429      C1434   1.262       .  A
O1429      V1432   1.885       .  S
O1430      C1433   1.262       .  A
O1430      V1432   1.899       .  S
V1431      V1432   2.084       .  T
C1433      C1689   1.475       .  S
C1434      C1677   1.463       .  S
C1435      C1665   1.496       .  S
C1436      C1704   1.514       .  S
C1437      C1981   1.608       .  S
C1437      C2345   1.568       .  S
C1437      C1653   1.581       .  S
C1437      C1740   1.586       .  S
C1438      C1593   1.581       .  S
C1438      C1605   1.575       .  S
C1438      C1617   1.585       .  S
C1438      C1644   1.582       .  S
C1439      C1581   1.588       .  S
C1439      C1632   1.568       .  S
C1439      C1692   1.579       .  S
C1439      C1725   1.575       .  S
C1440      C1569   1.601       .  S
C1440      C1584   1.573       .  S
C1440      C1608   1.576       .  S
C1440      C1680   1.560       .  S
O1441      C1451   1.275       .  A
O1441      V2153   1.939       .  S
O1442      C1452   1.273       .  A
O1442      V1449   1.936       .  S
O1443      C1453   1.258       .  A
O1443      V1449   1.888       .  S
O1444      C1454   1.263       .  A
O1445      V1450   1.914       .  S
O1446      C1453   1.267       .  A
O1446      V1450   1.888       .  S
O1447      C1452   1.263       .  A
O1447      V1450   1.900       .  S
O1448      C1451   1.263       .  A
O1448      V2154   1.900       .  S
V1449      O2145   1.942   1_545  S
V1449      V1450   2.084       .  T
V1450      O2152   1.903   1_545  S
C1451      C1557   1.508       .  S
C1452      C1548   1.498       .  S
C1453      C1620   1.474       .  S
C1454      C1572   1.488       .  S
O1455      C1465   1.266       .  A
O1455      V1463   1.909       .  S
O1456      C1466   1.266       .  A
O1456      V1463   1.900       .  S
O1457      C1467   1.262       .  A
O1457      V1463   1.896       .  S
O1458      C1468   1.262       .  A
O1458      V1463   1.896       .  S
O1459      C1468   1.268       .  A
O1459      V1464   1.916       .  S
O1460      C1467   1.267       .  A
O1460      V1464   1.912       .  S
O1461      C1466   1.259       .  A
O1461      V1464   1.886       .  S
O1462      C1465   1.261       .  A
O1462      V1464   1.892       .  S
V1463      V1464   2.089       .  T
C1465      C1596   1.470       .  S
C1466      C1656   1.467       .  S
C1467      C1524   1.478       .  S
C1468      C1533   1.479       .  S
C1469      C1497   1.562       .  S
C1469      C1509   1.598       .  S
C1469      C1545   1.618       .  S
C1469      C1701   1.616       .  S
C1470      C1837   1.603       .  S
C1470      C1668   1.605       .  S
C1470      C1752   1.562       .  S
C1471      C1476   1.614       .  S
C1471      C1512   1.599       .  S
C1471      C1521   1.584       .  S
C1471      C1560   1.599       .  S
C1472      C1473   1.603       .  S
C1472      C1488   1.604       .  S
C1472      C1536   1.602       .  S
C1472      C1716   1.588       .  S
C1473      C1474   1.429       .  A
C1473      C1478   1.412   1_655  A
C1474      C1475   1.416       .  A
C1474      H1483   1.075       .  S
C1475      S1479   1.797       .  S
C1476      C1477   1.437       .  A
C1477      H1484   1.078       .  S
C1478      S1480   1.800       .  S
S1479      H1482   1.403   1_655  S
S1480      H1481   1.406       .  S
C1485      C1822   1.601       .  S
C1485      C1486   1.418       .  A
C1485      C1490   1.417   1_556  A
C1486      C1487   1.427   1_556  A
C1486      H1847   1.074   1_655  S
C1487      C1488   1.451       .  A
C1487      S1491   1.817   1_655  S
C1488      C1489   1.410       .  A
C1489      C1490   1.385       .  A
C1489      H1496   1.059       .  S
C1490      S1492   1.815       .  S
S1491      H1494   1.407   1_554  S
S1492      H1493   1.394       .  S
H1495      C1838   1.073   1_455  S
C1497      C1498   1.409       .  A
C1497      C1502   1.425       .  A
C1498      C1499   1.387       .  A
C1498      H1507   1.081       .  S
C1499      C1500   1.438       .  A
C1499      S1503   1.817       .  S
C1500      C1501   1.429       .  A
C1501      C1502   1.414       .  A
C1502      S1504   1.798       .  S
S1503      H1506   1.409       .  S
S1504      H1505   1.401       .  S
C1509      C1510   1.421       .  A
C1509      C1514   1.414       .  A
C1510      C1511   1.422       .  A
C1510      H1519   1.071       .  S
C1511      C1512   1.420       .  A
C1512      C1513   1.429       .  A
C1513      C1514   1.397       .  A
C1513      H1520   1.078       .  S
C1514      S1516   1.814       .  S
S1515      H1518   1.405       .  S
S1516      H1517   1.407       .  S
C1521      C1522   1.424       .  A
C1521      C1526   1.429       .  A
C1522      C1523   1.392       .  A
C1522      H1531   1.081       .  S
C1523      C1524   1.401       .  A
C1523      S1527   1.799       .  S
C1524      C1525   1.406       .  A
C1525      C1526   1.410       .  A
C1525      H1532   1.083       .  S
C1526      S1528   1.811       .  S
S1527      H1530   1.402       .  S
S1528      H1529   1.406       .  S
C1533      C1534   1.394       .  A
C1533      C1538   1.401       .  A
C1534      C1535   1.407       .  A
C1534      H1543   1.085       .  S
C1535      C1536   1.455       .  A
C1535      S1539   1.827       .  S
C1536      C1537   1.426       .  A
C1537      C1538   1.399       .  A
C1537      H1544   1.075       .  S
C1538      S1540   1.804       .  S
S1539      H1542   1.396       .  S
S1540      H1541   1.405       .  S
C1545      C1546   1.424       .  A
C1545      C1550   1.453       .  A
C1546      C1547   1.402       .  A
C1546      H1555   1.071       .  S
C1547      C1548   1.408       .  A
C1547      S1551   1.798       .  S
C1548      C1549   1.391       .  A
C1549      C1550   1.416       .  A
S1551      H1554   1.397       .  S
C1557      C1558   1.398       .  A
C1557      C1562   1.412       .  A
C1558      C1559   1.422       .  A
C1559      C1560   1.446       .  A
C1560      C1561   1.420       .  A
C1561      C1562   1.404       .  A
C1561      H1568   1.075       .  S
C1562      S1564   1.803       .  S
S1563      H1566   1.407       .  S
S1564      H1565   1.406       .  S
C1569      C1570   1.427       .  A
C1569      C1574   1.434       .  A
C1570      C1571   1.403       .  A
C1570      H2283   1.080   1_545  S
C1571      C1572   1.405       .  A
C1571      S2279   1.804   1_545  S
C1572      C1573   1.400       .  A
C1573      C1574   1.410       .  A
C1573      H1580   1.083       .  S
C1574      S1576   1.805       .  S
S1575      C2275   1.804       .  S
S1575      H1578   1.407       .  S
S1576      H1577   1.406       .  S
H1579      C2274   1.080       .  S
C1581      C1582   1.418       .  A
C1581      C1586   1.441       .  A
C1582      C1583   1.416       .  A
C1582      H1591   1.074       .  S
C1583      C2288   1.421       .  A
C1583      S2291   1.789       .  S
C1584      C2287   1.422   1_545  A
C1584      C2289   1.408       .  A
C1585      C2288   1.408       .  A
C1585      C1586   1.380       .  A
C1585      H2296   1.084       .  S
C1586      S1588   1.804       .  S
S1587      C2287   1.790       .  S
S1587      H1590   1.407       .  S
S1588      H1589   1.404       .  S
H1592      C2289   1.084       .  S
C1593      C1594   1.422       .  A
C1593      C1598   1.435       .  A
C1594      C1595   1.386       .  A
C1594      H1603   1.077       .  S
C1595      C1596   1.395       .  A
C1595      S1599   1.794       .  S
C1596      C1597   1.398       .  A
C1597      C1598   1.413       .  A
C1597      H1604   1.083       .  S
C1598      S1600   1.804       .  S
S1599      H1602   1.401       .  S
S1600      H1601   1.407       .  S
C1605      C1606   1.408       .  A
C1605      C1610   1.433       .  A
C1606      C1607   1.377       .  A
C1606      H1615   1.077       .  S
C1607      C1608   1.435       .  A
C1607      S1611   1.819       .  S
C1608      C1609   1.425       .  A
C1609      C1610   1.421       .  A
C1609      H1616   1.083   1_545  S
C1610      S2316   1.802   1_545  S
S1611      H1614   1.409       .  S
S1612      C2314   1.803       .  S
S1612      H2317   1.397       .  S
H1613      S2316   1.397   1_545  S
C1617      C1618   1.416       .  A
C1617      C1622   1.440       .  A
C1618      C1619   1.401       .  A
C1618      H1627   1.083       .  S
C1619      C1620   1.413       .  A
C1619      S1623   1.805       .  S
C1620      C1621   1.389       .  A
C1621      C1622   1.387       .  A
C1621      H1628   1.083       .  S
C1622      S1624   1.805   1_545  S
S1623      H1626   1.403       .  S
S1624      H1625   1.408       .  S
C1629      C1789   1.610       .  S
C1629      C1630   1.417       .  A
C1629      C1634   1.446       .  A
C1630      C1631   1.368       .  A
C1630      H1639   1.072       .  S
C1631      C1632   1.417       .  A
C1631      S1635   1.810       .  S
C1632      C1633   1.418       .  A
C1633      C1634   1.432       .  A
C1633      H1640   1.082       .  S
C1634      S2340   1.805       .  S
S1635      H1638   1.409       .  S
S1636      C2338   1.804   1_545  S
S1636      H1989   1.380       .  S
H1637      S1988   1.383   1_554  S
C1641      C2141   1.570       .  S
C1641      C1642   1.409   1_565  A
C1641      C2350   1.438       .  A
C1642      C1643   1.419       .  A
C1642      H1651   1.076       .  S
C1643      C1644   1.448       .  A
C1643      S1647   1.805       .  S
C1644      C1645   1.404   1_545  A
C1645      C2350   1.385       .  A
C1645      H2356   1.072       .  S
C1646      C2345   1.438       .  A
C1646      C2349   1.385       .  A
C1646      S1648   1.816       .  S
S1647      H1650   1.408       .  S
S1648      H1649   1.398       .  S
H1652      C2349   1.071       .  S
C1653      C1654   1.417       .  A
C1653      C1658   1.452       .  A
C1654      C1655   1.403       .  A
C1654      H1663   1.074       .  S
C1655      C1656   1.410       .  A
C1655      S1659   1.809       .  S
C1656      C1657   1.385       .  A
C1657      C1658   1.390       .  A
C1657      H1664   1.085       .  S
C1658      S1660   1.816       .  S
S1659      H1662   1.407       .  S
S1660      H1661   1.396       .  S
C1665      C1666   1.403       .  A
C1665      C1670   1.406       .  A
C1666      C1667   1.404       .  A
C1666      H1675   1.083       .  S
C1667      C1668   1.431       .  A
C1667      S1671   1.797       .  S
C1668      C1669   1.427       .  A
C1669      C1670   1.401       .  A
C1669      H1676   1.076       .  S
C1670      S1672   1.802       .  S
S1671      H1674   1.408       .  S
S1672      H1673   1.403       .  S
C1677      C1678   1.387       .  A
C1677      C1682   1.404       .  A
C1678      C1679   1.403       .  A
C1678      H1687   1.084       .  S
C1679      C1680   1.447       .  A
C1679      S1683   1.806       .  S
C1680      C1681   1.405       .  A
C1681      C1682   1.385       .  A
C1681      H1688   1.078       .  S
C1682      S1684   1.785       .  S
S1683      H1686   1.408       .  S
S1684      H1685   1.404       .  S
C1689      C1690   1.388       .  A
C1689      C1694   1.413       .  A
C1690      C1691   1.390       .  A
C1690      H1699   1.085       .  S
C1691      C1692   1.449       .  A
C1691      S1695   1.817       .  S
C1692      C1693   1.413       .  A
C1693      C1694   1.406       .  A
C1693      H1700   1.081       .  S
C1694      S1696   1.797       .  S
S1695      H1698   1.397       .  S
S1696      H1697   1.404       .  S
C1701      C1702   1.431       .  A
C1701      C1706   1.452       .  A
C1702      C1703   1.414       .  A
C1702      H1711   1.084       .  S
C1703      C1704   1.412       .  A
C1703      S1707   1.795       .  S
C1704      C1705   1.399       .  A
C1705      C1706   1.405       .  A
C1705      H1712   1.083       .  S
C1706      S1708   1.814       .  S
S1707      H1710   1.407       .  S
S1708      H1709   1.408       .  S
C1713      C1714   1.404       .  A
C1713      C1718   1.402       .  A
C1714      C1715   1.411       .  A
C1714      H2075   1.084   1_554  S
C1715      C1716   1.443       .  A
C1715      S1719   1.815   1_554  S
C1716      C1717   1.416       .  A
C1717      C1718   1.389       .  A
C1717      H1724   1.068       .  S
C1718      S1720   1.807   1_655  S
S1719      H1722   1.395   1_556  S
S1720      H1721   1.408       .  S
H1723      C2066   1.083       .  S
C1725      C1726   1.437       .  A
C1725      C1730   1.442       .  A
C1726      C1727   1.387       .  A
C1726      H1735   1.080       .  S
C1727      C1728   1.392       .  A
C1727      S2435   1.807       .  S
C1728      C1729   1.400       .  A
C1729      C1730   1.401       .  A
C1729      H1736   1.084       .  S
C1730      S1732   1.808       .  S
S1731      C2431   1.808   1_545  S
S1731      H1734   1.401       .  S
S1732      H1733   1.391       .  S
C1737      C1738   1.391       .  A
C1737      C1742   1.412       .  A
C1738      C1739   1.401       .  A
C1738      H2451   1.084       .  S
C1739      C1740   1.445       .  A
C1739      S2447   1.802       .  S
C1740      C1741   1.420       .  A
C1741      C1742   1.404       .  A
C1741      H2100   1.083       .  S
C1742      S2096   1.801   1_554  S
S1743      C2443   1.802   1_545  S
S1743      H1746   1.408       .  S
S1744      C2094   1.801       .  S
S1744      H1745   1.407       .  S
H1747      C2442   1.084       .  S
H1748      C2093   1.083       .  S
C1749      C1750   1.398   1_655  A
C1749      C1754   1.415       .  A
C1750      C1751   1.409       .  A
C1751      C1752   1.437   1_455  A
C1752      C1753   1.417       .  A
C1753      C1754   1.407       .  A
C1753      H1760   1.081       .  S
C1754      S1756   1.803       .  S
S1755      H2110   1.406       .  S
S1756      H1757   1.403       .  S
H1758      S2107   1.407       .  S
O1761      C1771   1.268       .  A
O1762      V1769   1.897       .  S
O1763      C1773   1.262       .  A
O1763      V1769   1.884       .  S
O1764      V2473   1.904   1_545  S
O1765      C1774   1.270       .  A
O1765      V2474   1.924   1_545  S
O1766      V1770   1.909       .  S
O1767      C1772   1.261       .  A
O1767      V1770   1.877       .  S
V1769      O2468   1.902       .  S
V1770      O2469   1.919       .  S
C1771      C2089   1.491       .  S
C1772      C2080   1.462       .  S
C1773      C2065   1.479       .  S
C1774      C2101   1.491       .  S
O1775      C1785   1.266       .  A
O1775      V1783   1.894       .  S
O1776      C1786   1.264       .  A
O1776      V1783   1.905       .  S
O1777      C1787   1.262       .  A
O1777      V1783   1.889       .  S
O1778      C1788   1.266       .  A
O1778      V1783   1.896       .  S
O1779      C1788   1.273       .  A
O1779      V1784   1.935       .  S
O1780      C1787   1.270       .  A
O1780      V1784   1.916       .  S
O1781      C1786   1.260       .  A
O1781      V1784   1.879       .  S
O1782      C1785   1.260       .  A
O1782      V1784   1.893       .  S
V1783      V1784   2.084       .  T
C1785      C2041   1.472       .  S
C1786      C2029   1.462       .  S
C1787      C2017   1.498       .  S
C1788      C2056   1.516       .  S
C1789      C2697   1.571       .  S
C1789      C2005   1.581       .  S
C1789      C2092   1.585       .  S
C1790      C1945   1.585       .  S
C1790      C1957   1.571       .  S
C1790      C1969   1.587       .  S
C1790      C1996   1.585       .  S
C1791      C1933   1.586       .  S
C1791      C1984   1.566       .  S
C1791      C2044   1.576       .  S
C1791      C2077   1.578       .  S
C1792      C1921   1.600       .  S
C1792      C1936   1.573       .  S
C1792      C1960   1.576       .  S
C1792      C2032   1.561       .  S
O1793      C1803   1.275       .  A
O1793      V2505   1.938       .  S
O1794      C1804   1.273       .  A
O1794      V1801   1.935       .  S
O1795      C1805   1.257       .  A
O1795      V1801   1.885       .  S
O1796      C1806   1.262       .  A
O1797      V1802   1.914       .  S
O1798      C1805   1.267       .  A
O1798      V1802   1.890       .  S
O1799      C1804   1.262       .  A
O1799      V1802   1.897       .  S
O1800      C1803   1.262       .  A
O1800      V2506   1.898       .  S
V1801      O2497   1.939   1_545  S
V1801      V1802   2.085       .  T
V1802      O2504   1.900   1_545  S
C1803      C1909   1.507       .  S
C1804      C1900   1.496       .  S
C1805      C1972   1.474       .  S
C1806      C1924   1.485       .  S
O1807      C1817   1.267       .  A
O1807      V1815   1.913       .  S
O1808      C1818   1.267       .  A
O1808      V1815   1.902       .  S
O1809      C1819   1.262       .  A
O1809      V1815   1.894       .  S
O1810      C1820   1.262       .  A
O1810      V1815   1.900       .  S
O1811      C1820   1.270       .  A
O1811      V1816   1.922       .  S
O1812      C1819   1.268       .  A
O1812      V1816   1.914       .  S
O1813      C1818   1.259       .  A
O1813      V1816   1.886       .  S
O1814      C1817   1.261       .  A
O1814      V1816   1.894       .  S
V1815      V1816   2.088       .  T
C1817      C1948   1.475       .  S
C1818      C2008   1.468       .  S
C1819      C1876   1.479       .  S
C1820      C1885   1.486       .  S
C1821      C1849   1.565       .  S
C1821      C1861   1.600       .  S
C1821      C1897   1.616       .  S
C1821      C2053   1.618       .  S
C1822      C2020   1.608       .  S
C1822      C2104   1.562       .  S
C1823      C1828   1.609       .  S
C1823      C1864   1.602       .  S
C1823      C1873   1.584       .  S
C1823      C1912   1.597       .  S
C1824      C1825   1.605       .  S
C1824      C1840   1.609       .  S
C1824      C1888   1.608       .  S
C1824      C2068   1.587       .  S
C1825      C1826   1.429       .  A
C1825      C1830   1.414   1_655  A
C1826      C1827   1.416       .  A
C1826      H1835   1.074       .  S
C1827      S1831   1.799       .  S
C1828      C1829   1.436       .  A
C1829      H1836   1.079       .  S
C1830      S1832   1.798       .  S
S1831      H1834   1.402   1_655  S
S1832      H1833   1.406       .  S
C1837      C1838   1.417       .  A
C1837      C1842   1.421       .  A
C1838      C1839   1.427       .  A
C1839      C1840   1.454       .  A
C1839      S1843   1.818   1_655  S
C1840      C1841   1.408       .  A
C1841      C1842   1.389       .  A
C1841      H1848   1.056       .  S
C1842      S1844   1.821       .  S
S1843      H1846   1.407       .  S
S1844      H1845   1.406       .  S
C1849      C1850   1.409       .  A
C1849      C1854   1.425       .  A
C1850      C1851   1.388       .  A
C1850      H1859   1.081       .  S
C1851      C1852   1.439       .  A
C1851      S1855   1.816       .  S
C1852      C1853   1.429       .  A
C1853      C1854   1.416       .  A
C1854      S1856   1.798       .  S
S1855      H1858   1.409       .  S
S1856      H1857   1.402       .  S
C1861      C1862   1.421       .  A
C1861      C1866   1.412       .  A
C1862      C1863   1.424       .  A
C1862      H1871   1.071       .  S
C1863      C1864   1.423       .  A
C1864      C1865   1.430       .  A
C1865      C1866   1.398       .  A
C1865      H1872   1.078       .  S
C1866      S1868   1.814       .  S
S1867      H1870   1.405       .  S
S1868      H1869   1.407       .  S
C1873      C1874   1.424       .  A
C1873      C1878   1.429       .  A
C1874      C1875   1.392       .  A
C1874      H1883   1.081       .  S
C1875      C1876   1.400       .  A
C1875      S1879   1.796       .  S
C1876      C1877   1.406       .  A
C1877      C1878   1.410       .  A
C1877      H1884   1.083       .  S
C1878      S1880   1.810       .  S
S1879      H1882   1.404       .  S
S1880      H1881   1.406       .  S
C1885      C1886   1.396       .  A
C1885      C1890   1.403       .  A
C1886      C1887   1.411       .  A
C1886      H1895   1.084       .  S
C1887      C1888   1.456       .  A
C1887      S1891   1.827       .  S
C1888      C1889   1.427       .  A
C1889      C1890   1.401       .  A
C1889      H1896   1.076       .  S
C1890      S1892   1.804       .  S
S1891      H1894   1.397       .  S
S1892      H1893   1.405       .  S
C1897      C1898   1.423       .  A
C1897      C1902   1.453       .  A
C1898      C1899   1.402       .  A
C1898      H1907   1.071       .  S
C1899      C1900   1.408       .  A
C1899      S1903   1.799       .  S
C1900      C1901   1.389       .  A
C1901      C1902   1.415       .  A
S1903      H1906   1.399       .  S
C1909      C1910   1.397       .  A
C1909      C1914   1.414       .  A
C1910      C1911   1.420       .  A
C1911      C1912   1.446       .  A
C1912      C1913   1.419       .  A
C1913      C1914   1.404       .  A
C1913      H1920   1.075       .  S
C1914      S1916   1.803       .  S
S1915      H1918   1.407       .  S
S1916      H1917   1.406       .  S
C1921      C1922   1.427       .  A
C1921      C1926   1.434       .  A
C1922      C1923   1.402       .  A
C1922      H2635   1.080   1_545  S
C1923      C1924   1.404       .  A
C1923      S2631   1.805   1_545  S
C1924      C1925   1.400       .  A
C1925      C1926   1.409       .  A
C1925      H1932   1.083       .  S
C1926      S1928   1.806       .  S
S1927      C2627   1.804       .  S
S1927      H1930   1.407       .  S
S1928      H1929   1.406       .  S
H1931      C2626   1.080       .  S
C1933      C1934   1.420       .  A
C1933      C1938   1.439       .  A
C1934      C1935   1.414       .  A
C1934      H1943   1.073       .  S
C1935      C2640   1.420       .  A
C1935      S2643   1.790       .  S
C1936      C2639   1.422   1_545  A
C1936      C2641   1.410       .  A
C1937      C2640   1.408       .  A
C1937      C1938   1.380       .  A
C1937      H2648   1.084       .  S
C1938      S1940   1.804       .  S
S1939      C2639   1.794       .  S
S1939      H1942   1.406       .  S
S1940      H1941   1.404       .  S
H1944      C2641   1.082       .  S
C1945      C1946   1.421       .  A
C1945      C1950   1.435       .  A
C1946      C1947   1.390       .  A
C1946      H1955   1.077       .  S
C1947      C1948   1.400       .  A
C1947      S1951   1.798       .  S
C1948      C1949   1.398       .  A
C1949      C1950   1.413       .  A
C1949      H1956   1.083       .  S
C1950      S1952   1.806       .  S
S1951      H1954   1.398       .  S
S1952      H1953   1.406       .  S
C1957      C1958   1.408       .  A
C1957      C1962   1.431       .  A
C1958      C1959   1.379       .  A
C1958      H1967   1.079       .  S
C1959      C1960   1.436       .  A
C1959      S1963   1.817       .  S
C1960      C1961   1.426       .  A
C1961      C1962   1.419       .  A
C1961      H1968   1.083   1_545  S
C1962      S2668   1.802   1_545  S
S1963      H1966   1.410       .  S
S1964      C2666   1.803       .  S
S1964      H2669   1.398       .  S
H1965      S2668   1.398   1_545  S
C1969      C1970   1.416       .  A
C1969      C1974   1.442       .  A
C1970      C1971   1.400       .  A
C1970      H1979   1.082       .  S
C1971      C1972   1.413       .  A
C1971      S1975   1.803       .  S
C1972      C1973   1.387       .  A
C1973      C1974   1.387       .  A
C1973      H1980   1.084       .  S
C1974      S1976   1.806   1_545  S
S1975      H1978   1.405       .  S
S1976      H1977   1.408       .  S
C1981      C1982   1.417       .  A
C1981      C1986   1.446   1_554  A
C1982      C1983   1.368   1_554  A
C1982      H1991   1.072       .  S
C1983      C1984   1.416       .  A
C1983      S1987   1.809       .  S
C1984      C1985   1.417       .  A
C1985      C1986   1.431       .  A
C1985      H1992   1.083       .  S
C1986      S2692   1.806       .  S
S1987      H1990   1.408   1_556  S
S1988      C2690   1.806   1_545  S
C1993      C2493   1.568       .  S
C1993      C1994   1.410   1_565  A
C1993      C2702   1.438       .  A
C1994      C1995   1.417       .  A
C1994      H2003   1.078       .  S
C1995      C1996   1.448       .  A
C1995      S1999   1.795       .  S
C1996      C1997   1.404   1_545  A
C1997      C2702   1.384       .  A
C1997      H2708   1.071       .  S
C1998      C2697   1.438       .  A
C1998      C2701   1.385       .  A
C1998      S2000   1.816       .  S
S1999      H2002   1.406       .  S
S2000      H2001   1.397       .  S
H2004      C2701   1.071       .  S
C2005      C2006   1.415       .  A
C2005      C2010   1.448       .  A
C2006      C2007   1.404       .  A
C2006      H2015   1.075       .  S
C2007      C2008   1.412       .  A
C2007      S2011   1.809       .  S
C2008      C2009   1.385       .  A
C2009      C2010   1.392       .  A
C2009      H2016   1.083       .  S
C2010      S2012   1.818       .  S
S2011      H2014   1.407       .  S
S2012      H2013   1.407       .  S
C2017      C2018   1.405       .  A
C2017      C2022   1.405       .  A
C2018      C2019   1.407       .  A
C2018      H2027   1.083       .  S
C2019      C2020   1.432       .  A
C2019      S2023   1.797       .  S
C2020      C2021   1.429       .  A
C2021      C2022   1.401       .  A
C2021      H2028   1.077       .  S
C2022      S2024   1.802       .  S
S2023      H2026   1.408   1_556  S
S2024      H2025   1.404       .  S
C2029      C2030   1.387       .  A
C2029      C2034   1.404       .  A
C2030      C2031   1.402       .  A
C2030      H2039   1.084       .  S
C2031      C2032   1.447       .  A
C2031      S2035   1.804       .  S
C2032      C2033   1.406       .  A
C2033      C2034   1.384       .  A
C2033      H2040   1.077       .  S
C2034      S2036   1.787       .  S
S2035      H2038   1.408       .  S
S2036      H2037   1.403       .  S
C2041      C2042   1.387       .  A
C2041      C2046   1.413       .  A
C2042      C2043   1.390       .  A
C2042      H2051   1.085       .  S
C2043      C2044   1.450       .  A
C2043      S2047   1.819       .  S
C2044      C2045   1.411       .  A
C2045      C2046   1.403       .  A
C2045      H2052   1.081       .  S
C2046      S2048   1.798       .  S
S2047      H2050   1.396       .  S
S2048      H2049   1.404       .  S
C2053      C2054   1.431       .  A
C2053      C2058   1.453       .  A
C2054      C2055   1.415       .  A
C2054      H2063   1.084       .  S
C2055      C2056   1.412       .  A
C2055      S2059   1.794       .  S
C2056      C2057   1.399       .  A
C2057      C2058   1.406       .  A
C2057      H2064   1.083       .  S
C2058      S2060   1.813       .  S
S2059      H2062   1.407       .  S
S2060      H2061   1.408       .  S
C2065      C2066   1.405       .  A
C2065      C2070   1.402       .  A
C2066      C2067   1.412       .  A
C2067      C2068   1.442       .  A
C2067      S2071   1.815       .  S
C2068      C2069   1.416       .  A
C2069      C2070   1.389       .  A
C2069      H2076   1.066       .  S
C2070      S2072   1.807   1_655  S
S2071      H2074   1.395       .  S
S2072      H2073   1.408       .  S
C2077      C2078   1.437       .  A
C2077      C2082   1.443       .  A
C2078      C2079   1.389       .  A
C2078      H2087   1.080       .  S
C2079      C2080   1.394       .  A
C2079      S2787   1.808   1_556  S
C2080      C2081   1.400       .  A
C2081      C2082   1.402       .  A
C2081      H2088   1.085       .  S
C2082      S2084   1.808       .  S
S2083      C2783   1.808   1_544  S
S2083      H2086   1.400       .  S
S2084      H2085   1.390       .  S
C2089      C2090   1.391       .  A
C2089      C2094   1.413       .  A
C2090      C2091   1.400       .  A
C2090      H2803   1.084       .  S
C2091      C2092   1.445       .  A
C2091      S2799   1.803       .  S
C2092      C2093   1.420       .  A
C2093      C2094   1.406       .  A
S2095      C2795   1.805   1_545  S
S2095      H2098   1.408       .  S
S2096      H2097   1.408       .  S
H2099      C2794   1.084       .  S
C2101      C2102   1.398   1_655  A
C2101      C2106   1.416       .  A
C2102      C2103   1.409       .  A
C2103      C2104   1.437   1_455  A
C2104      C2105   1.417       .  A
C2105      C2106   1.409       .  A
C2105      H2112   1.081       .  S
C2106      S2108   1.802       .  S
S2108      H2109   1.403       .  S
O2113      C2123   1.269       .  A
O2114      C2476   1.263   1_554  A
O2114      V2121   1.898       .  S
O2115      C2125   1.261       .  A
O2115      V2121   1.883       .  S
O2116      C2478   1.264   1_554  A
O2117      C2126   1.270       .  A
O2118      C2477   1.267       .  A
O2118      V2122   1.912       .  S
O2119      C2124   1.261       .  A
O2119      V2122   1.875       .  S
O2120      C2475   1.264       .  A
V2121      V2474   2.086   1_554  T
V2122      V2473   2.086       .  T
C2123      O2472   1.264   1_554  A
C2123      C2441   1.494       .  S
C2124      O2466   1.261       .  A
C2124      C2432   1.455       .  S
C2125      O2470   1.267   1_554  A
C2125      C2417   1.478       .  S
C2126      O2468   1.263       .  A
C2126      C2453   1.490       .  S
O2127      C2137   1.265       .  A
O2127      V2135   1.891       .  S
O2128      C2138   1.263       .  A
O2128      V2135   1.904       .  S
O2129      C2139   1.263       .  A
O2129      V2135   1.892       .  S
O2130      C2140   1.267       .  A
O2130      V2135   1.897       .  S
O2131      C2140   1.272       .  A
O2131      V2136   1.933       .  S
O2132      C2139   1.269       .  A
O2132      V2136   1.912       .  S
O2133      C2138   1.261       .  A
O2133      V2136   1.882       .  S
O2134      C2137   1.261       .  A
O2134      V2136   1.896       .  S
V2135      V2136   2.084       .  T
C2137      C2393   1.473       .  S
C2138      C2381   1.461       .  S
C2139      C2369   1.496       .  S
C2140      C2408   1.516       .  S
C2141      C2685   1.610       .  S
C2141      C2357   1.581       .  S
C2141      C2444   1.590       .  S
C2142      C2297   1.581       .  S
C2142      C2309   1.575       .  S
C2142      C2321   1.584       .  S
C2142      C2348   1.581       .  S
C2143      C2285   1.587       .  S
C2143      C2336   1.567       .  S
C2143      C2396   1.575       .  S
C2143      C2429   1.574       .  S
C2144      C2273   1.600       .  S
C2144      C2288   1.576       .  S
C2144      C2312   1.577       .  S
C2144      C2384   1.559       .  S
O2145      C2155   1.276       .  A
O2146      C2156   1.273       .  A
O2146      V2153   1.935       .  S
O2147      C2157   1.257       .  A
O2147      V2153   1.887       .  S
O2148      C2158   1.263       .  A
O2149      V2154   1.915       .  S
O2150      C2157   1.267       .  A
O2150      V2154   1.889       .  S
O2151      C2156   1.263       .  A
O2151      V2154   1.898       .  S
O2152      C2155   1.264       .  A
V2153      V2154   2.084       .  T
C2155      C2261   1.511       .  S
C2156      C2252   1.496       .  S
C2157      C2324   1.473       .  S
C2158      C2276   1.487       .  S
O2159      C2169   1.266       .  A
O2159      V2167   1.910       .  S
O2160      C2170   1.267       .  A
O2160      V2167   1.902       .  S
O2161      C2171   1.262       .  A
O2161      V2167   1.896       .  S
O2162      C2172   1.262       .  A
O2162      V2167   1.898       .  S
O2163      C2172   1.269       .  A
O2163      V2168   1.920       .  S
O2164      C2171   1.268       .  A
O2164      V2168   1.915       .  S
O2165      C2170   1.259       .  A
O2165      V2168   1.887       .  S
O2166      C2169   1.261       .  A
O2166      V2168   1.894       .  S
V2167      V2168   2.088       .  T
C2169      C2300   1.473       .  S
C2170      C2360   1.469       .  S
C2171      C2228   1.480       .  S
C2172      C2237   1.483       .  S
C2173      C2201   1.566       .  S
C2173      C2213   1.602       .  S
C2173      C2249   1.618       .  S
C2173      C2405   1.618       .  S
C2174      C2541   1.598       .  S
C2174      C2372   1.604       .  S
C2174      C2456   1.563       .  S
C2175      C2180   1.618       .  S
C2175      C2216   1.604       .  S
C2175      C2225   1.584       .  S
C2175      C2264   1.602       .  S
C2176      C2177   1.599       .  S
C2176      C2192   1.605       .  S
C2176      C2240   1.607       .  S
C2176      C2420   1.587       .  S
C2177      C2178   1.428       .  A
C2177      C2182   1.412   1_655  A
C2178      C2179   1.416       .  A
C2178      H2187   1.076       .  S
C2179      S2183   1.798       .  S
C2180      C2181   1.438       .  A
C2181      H2188   1.077       .  S
C2182      S2184   1.799       .  S
S2183      H2186   1.403   1_655  S
S2184      H2185   1.406       .  S
C2189      C2526   1.604       .  S
C2189      C2190   1.417       .  A
C2189      C2194   1.426   1_556  A
C2190      C2191   1.427   1_556  A
C2190      H2551   1.072   1_655  S
C2191      C2192   1.452       .  A
C2191      S2195   1.820   1_655  S
C2192      C2193   1.405       .  A
C2193      C2194   1.389       .  A
C2193      H2200   1.054       .  S
C2194      S2196   1.822       .  S
S2195      H2198   1.406   1_554  S
S2196      H2197   1.408       .  S
H2199      C2542   1.075   1_455  S
C2201      C2202   1.409       .  A
C2201      C2206   1.426       .  A
C2202      C2203   1.388       .  A
C2202      H2211   1.082       .  S
C2203      C2204   1.439       .  A
C2203      S2207   1.816       .  S
C2204      C2205   1.430       .  A
C2205      C2206   1.417       .  A
C2206      S2208   1.797       .  S
S2207      H2210   1.409       .  S
S2208      H2209   1.402       .  S
C2213      C2214   1.421       .  A
C2213      C2218   1.416       .  A
C2214      C2215   1.423       .  A
C2214      H2223   1.071       .  S
C2215      C2216   1.420       .  A
C2216      C2217   1.430       .  A
C2217      C2218   1.400       .  A
C2217      H2224   1.078       .  S
C2218      S2220   1.814       .  S
S2219      H2222   1.405       .  S
S2220      H2221   1.407       .  S
C2225      C2226   1.424       .  A
C2225      C2230   1.428       .  A
C2226      C2227   1.393       .  A
C2226      H2235   1.081       .  S
C2227      C2228   1.402       .  A
C2227      S2231   1.800       .  S
C2228      C2229   1.406       .  A
C2229      C2230   1.410       .  A
C2229      H2236   1.082       .  S
C2230      S2232   1.811       .  S
S2231      H2234   1.402       .  S
S2232      H2233   1.406       .  S
C2237      C2238   1.395       .  A
C2237      C2242   1.402       .  A
C2238      C2239   1.409       .  A
C2238      H2247   1.085       .  S
C2239      C2240   1.456       .  A
C2239      S2243   1.828       .  S
C2240      C2241   1.427       .  A
C2241      C2242   1.401       .  A
C2241      H2248   1.076       .  S
C2242      S2244   1.805       .  S
S2243      H2246   1.397       .  S
S2244      H2245   1.405       .  S
C2249      C2250   1.423       .  A
C2249      C2254   1.453       .  A
C2250      C2251   1.403       .  A
C2250      H2259   1.071       .  S
C2251      C2252   1.408       .  A
C2251      S2255   1.798       .  S
C2252      C2253   1.389       .  A
C2253      C2254   1.415       .  A
S2255      H2258   1.397       .  S
C2261      C2262   1.398       .  A
C2261      C2266   1.413       .  A
C2262      C2263   1.424       .  A
C2263      C2264   1.447       .  A
C2264      C2265   1.420       .  A
C2265      C2266   1.406       .  A
C2265      H2272   1.075       .  S
C2266      S2268   1.803       .  S
S2267      H2270   1.407       .  S
S2268      H2269   1.406       .  S
C2273      C2274   1.427       .  A
C2273      C2278   1.434       .  A
C2274      C2275   1.402       .  A
C2275      C2276   1.404       .  A
C2276      C2277   1.400       .  A
C2277      C2278   1.410       .  A
C2277      H2284   1.083       .  S
C2278      S2280   1.803       .  S
S2279      H2282   1.407       .  S
S2280      H2281   1.406       .  S
C2285      C2286   1.418       .  A
C2285      C2290   1.441       .  A
C2286      C2287   1.415       .  A
C2286      H2295   1.074       .  S
C2289      C2290   1.380   1_545  A
C2290      S2292   1.805       .  S
S2291      H2294   1.407       .  S
S2292      H2293   1.403       .  S
C2297      C2298   1.421       .  A
C2297      C2302   1.435       .  A
C2298      C2299   1.387       .  A
C2298      H2307   1.078       .  S
C2299      C2300   1.395       .  A
C2299      S2303   1.792       .  S
C2300      C2301   1.398       .  A
C2301      C2302   1.412       .  A
C2301      H2308   1.083       .  S
C2302      S2304   1.803       .  S
S2303      H2306   1.402       .  S
S2304      H2305   1.407       .  S
C2309      C2310   1.409       .  A
C2309      C2314   1.433       .  A
C2310      C2311   1.379       .  A
C2310      H2319   1.077       .  S
C2311      C2312   1.436       .  A
C2311      S2315   1.822       .  S
C2312      C2313   1.425       .  A
C2313      C2314   1.420       .  A
C2313      H2320   1.083       .  S
S2315      H2318   1.408       .  S
C2321      C2322   1.416       .  A
C2321      C2326   1.440       .  A
C2322      C2323   1.401       .  A
C2322      H2331   1.083       .  S
C2323      C2324   1.413       .  A
C2323      S2327   1.805       .  S
C2324      C2325   1.387       .  A
C2325      C2326   1.387       .  A
C2325      H2332   1.083       .  S
C2326      S2328   1.803       .  S
S2327      H2330   1.403       .  S
S2328      H2329   1.408       .  S
C2333      C2493   1.609       .  S
C2333      C2334   1.418       .  A
C2333      C2338   1.446       .  A
C2334      C2335   1.370       .  A
C2334      H2343   1.071       .  S
C2335      C2336   1.417       .  A
C2335      S2339   1.810       .  S
C2336      C2337   1.416       .  A
C2337      C2338   1.430       .  A
C2337      H2344   1.083   1_565  S
S2339      H2342   1.408       .  S
S2340      H2693   1.382       .  S
H2341      S2692   1.382   1_554  S
C2345      C2346   1.408       .  A
C2346      C2347   1.417       .  A
C2346      H2355   1.076       .  S
C2347      C2348   1.447       .  A
C2347      S2351   1.806       .  S
C2348      C2349   1.404       .  A
C2350      S2352   1.817       .  S
S2351      H2354   1.408       .  S
S2352      H2353   1.398       .  S
C2357      C2358   1.416       .  A
C2357      C2362   1.452       .  A
C2358      C2359   1.403       .  A
C2358      H2367   1.074       .  S
C2359      C2360   1.411       .  A
C2359      S2363   1.808       .  S
C2360      C2361   1.386       .  A
C2361      C2362   1.390       .  A
C2361      H2368   1.085       .  S
C2362      S2364   1.817       .  S
S2363      H2366   1.407       .  S
S2364      H2365   1.396       .  S
C2369      C2370   1.404       .  A
C2369      C2374   1.406       .  A
C2370      C2371   1.406       .  A
C2370      H2379   1.083       .  S
C2371      C2372   1.433       .  A
C2371      S2375   1.802       .  S
C2372      C2373   1.426       .  A
C2373      C2374   1.399       .  A
C2373      H2380   1.076       .  S
C2374      S2376   1.801       .  S
S2375      H2378   1.408       .  S
S2376      H2377   1.403       .  S
C2381      C2382   1.387       .  A
C2381      C2386   1.403       .  A
C2382      C2383   1.402       .  A
C2382      H2391   1.083       .  S
C2383      C2384   1.447       .  A
C2383      S2387   1.807       .  S
C2384      C2385   1.406       .  A
C2385      C2386   1.384       .  A
C2385      H2392   1.079       .  S
C2386      S2388   1.786       .  S
S2387      H2390   1.407       .  S
S2388      H2389   1.404       .  S
C2393      C2394   1.388       .  A
C2393      C2398   1.412       .  A
C2394      C2395   1.390       .  A
C2394      H2403   1.085       .  S
C2395      C2396   1.449       .  A
C2395      S2399   1.817       .  S
C2396      C2397   1.412       .  A
C2397      C2398   1.404       .  A
C2397      H2404   1.080       .  S
C2398      S2400   1.798       .  S
S2399      H2402   1.397       .  S
S2400      H2401   1.404       .  S
C2405      C2406   1.431       .  A
C2405      C2410   1.452       .  A
C2406      C2407   1.416       .  A
C2406      H2415   1.084       .  S
C2407      C2408   1.413       .  A
C2407      S2411   1.794       .  S
C2408      C2409   1.398       .  A
C2409      C2410   1.405       .  A
C2409      H2416   1.083       .  S
C2410      S2412   1.813       .  S
S2411      H2414   1.407       .  S
S2412      H2413   1.409       .  S
C2417      C2418   1.404       .  A
C2417      C2422   1.401       .  A
C2418      C2419   1.411       .  A
C2418      H2779   1.083   1_554  S
C2419      C2420   1.444       .  A
C2419      S2423   1.816   1_554  S
C2420      C2421   1.417       .  A
C2421      C2422   1.388       .  A
C2421      H2428   1.066       .  S
C2422      S2424   1.807   1_655  S
S2423      H2426   1.395   1_556  S
S2424      H2425   1.408       .  S
H2427      C2770   1.083       .  S
C2429      C2430   1.437       .  A
C2429      C2434   1.442       .  A
C2430      C2431   1.386       .  A
C2430      H2439   1.080       .  S
C2431      C2432   1.392       .  A
C2432      C2433   1.400       .  A
C2433      C2434   1.400       .  A
C2433      H2440   1.084       .  S
C2434      S2436   1.809       .  S
S2435      H2438   1.401       .  S
S2436      H2437   1.390       .  S
C2441      C2442   1.392   1_565  A
C2441      C2446   1.414       .  A
C2442      C2443   1.403   1_545  A
C2443      C2444   1.446       .  A
C2444      C2445   1.420       .  A
C2445      C2446   1.406       .  A
C2445      H2804   1.083       .  S
C2446      S2800   1.801   1_554  S
S2447      H2450   1.408       .  S
S2448      C2798   1.801       .  S
S2448      H2449   1.408       .  S
H2452      C2797   1.083       .  S
C2453      C2454   1.399   1_655  A
C2453      C2458   1.413       .  A
C2454      C2455   1.410       .  A
C2455      C2456   1.436   1_455  A
C2456      C2457   1.418       .  A
C2457      C2458   1.407       .  A
C2457      H2464   1.080       .  S
C2458      S2460   1.802       .  S
S2459      H2814   1.406       .  S
S2460      H2461   1.404       .  S
H2462      S2811   1.406       .  S
O2465      C2475   1.268       .  A
O2466      V2473   1.894       .  S
O2467      C2477   1.263       .  A
O2467      V2473   1.886       .  S
O2469      C2478   1.269       .  A
O2470      V2474   1.912       .  S
O2471      C2476   1.261       .  A
O2471      V2474   1.879       .  S
C2475      C2793   1.491       .  S
C2476      C2784   1.461       .  S
C2477      C2769   1.483       .  S
C2478      C2805   1.488       .  S
O2479      C2489   1.265       .  A
O2479      V2487   1.890       .  S
O2480      C2490   1.262       .  A
O2480      V2487   1.902       .  S
O2481      C2491   1.263       .  A
O2481      V2487   1.891       .  S
O2482      C2492   1.266       .  A
O2482      V2487   1.896       .  S
O2483      C2492   1.272       .  A
O2483      V2488   1.936       .  S
O2484      C2491   1.269       .  A
O2484      V2488   1.915       .  S
O2485      C2490   1.261       .  A
O2485      V2488   1.882       .  S
O2486      C2489   1.261       .  A
O2486      V2488   1.897       .  S
V2487      V2488   2.084       .  T
C2489      C2745   1.473       .  S
C2490      C2733   1.460       .  S
C2491      C2721   1.499       .  S
C2492      C2760   1.517       .  S
C2493      C2709   1.583       .  S
C2493      C2796   1.587       .  S
C2494      C2649   1.585       .  S
C2494      C2661   1.572       .  S
C2494      C2673   1.587       .  S
C2494      C2700   1.586       .  S
C2495      C2637   1.583       .  S
C2495      C2688   1.567       .  S
C2495      C2748   1.572       .  S
C2495      C2781   1.576       .  S
C2496      C2625   1.598       .  S
C2496      C2640   1.572       .  S
C2496      C2664   1.576       .  S
C2496      C2736   1.560       .  S
O2497      C2507   1.275       .  A
O2498      C2508   1.273       .  A
O2498      V2505   1.935       .  S
O2499      C2509   1.256       .  A
O2499      V2505   1.883       .  S
O2500      C2510   1.263       .  A
O2501      V2506   1.914       .  S
O2502      C2509   1.268       .  A
O2502      V2506   1.891       .  S
O2503      C2508   1.262       .  A
O2503      V2506   1.896       .  S
O2504      C2507   1.263       .  A
V2505      V2506   2.084       .  T
C2507      C2613   1.508       .  S
C2508      C2604   1.495       .  S
C2509      C2676   1.473       .  S
C2510      C2628   1.485       .  S
O2511      C2521   1.267       .  A
O2511      V2519   1.912       .  S
O2512      C2522   1.266       .  A
O2512      V2519   1.902       .  S
O2513      C2523   1.262       .  A
O2513      V2519   1.896       .  S
O2514      C2524   1.262       .  A
O2514      V2519   1.900       .  S
O2515      C2524   1.269       .  A
O2515      V2520   1.920       .  S
O2516      C2523   1.267       .  A
O2516      V2520   1.912       .  S
O2517      C2522   1.259       .  A
O2517      V2520   1.887       .  S
O2518      C2521   1.262       .  A
O2518      V2520   1.895       .  S
V2519      V2520   2.088       .  T
C2521      C2652   1.475       .  S
C2522      C2712   1.469       .  S
C2523      C2580   1.478       .  S
C2524      C2589   1.485       .  S
C2525      C2553   1.565       .  S
C2525      C2565   1.598       .  S
C2525      C2601   1.617       .  S
C2525      C2757   1.619       .  S
C2526      C2724   1.608       .  S
C2526      C2808   1.559       .  S
C2527      C2532   1.611       .  S
C2527      C2568   1.600       .  S
C2527      C2577   1.584       .  S
C2527      C2616   1.599       .  S
C2528      C2529   1.605       .  S
C2528      C2544   1.607       .  S
C2528      C2592   1.604       .  S
C2528      C2772   1.586       .  S
C2529      C2530   1.429       .  A
C2529      C2534   1.411   1_655  A
C2530      C2531   1.418       .  A
C2530      H2539   1.073       .  S
C2531      S2535   1.797       .  S
C2532      C2533   1.436       .  A
C2533      H2540   1.079       .  S
C2534      S2536   1.800       .  S
S2535      H2538   1.402   1_655  S
S2536      H2537   1.406       .  S
C2541      C2542   1.417       .  A
C2541      C2546   1.410       .  A
C2542      C2543   1.430       .  A
C2543      C2544   1.454       .  A
C2543      S2547   1.816   1_655  S
C2544      C2545   1.411       .  A
C2545      C2546   1.384       .  A
C2545      H2552   1.062       .  S
C2546      S2548   1.811       .  S
S2547      H2550   1.407       .  S
S2548      H2549   1.396       .  S
C2553      C2554   1.409       .  A
C2553      C2558   1.426       .  A
C2554      C2555   1.388       .  A
C2554      H2563   1.082       .  S
C2555      C2556   1.439       .  A
C2555      S2559   1.815       .  S
C2556      C2557   1.429       .  A
C2557      C2558   1.415       .  A
C2558      S2560   1.798       .  S
S2559      H2562   1.410       .  S
S2560      H2561   1.401       .  S
C2565      C2566   1.421       .  A
C2565      C2570   1.412       .  A
C2566      C2567   1.423       .  A
C2566      H2575   1.071       .  S
C2567      C2568   1.421       .  A
C2568      C2569   1.430       .  A
C2569      C2570   1.396       .  A
C2569      H2576   1.078       .  S
C2570      S2572   1.814       .  S
S2571      H2574   1.405       .  S
S2572      H2573   1.407       .  S
C2577      C2578   1.424       .  A
C2577      C2582   1.428       .  A
C2578      C2579   1.392       .  A
C2578      H2587   1.080       .  S
C2579      C2580   1.402       .  A
C2579      S2583   1.800       .  S
C2580      C2581   1.406       .  A
C2581      C2582   1.410       .  A
C2581      H2588   1.083       .  S
C2582      S2584   1.810       .  S
S2583      H2586   1.401       .  S
S2584      H2585   1.406       .  S
C2589      C2590   1.395       .  A
C2589      C2594   1.403       .  A
C2590      C2591   1.410       .  A
C2590      H2599   1.084       .  S
C2591      C2592   1.454       .  A
C2591      S2595   1.825       .  S
C2592      C2593   1.426       .  A
C2593      C2594   1.401       .  A
C2593      H2600   1.077       .  S
C2594      S2596   1.804       .  S
S2595      H2598   1.395       .  S
S2596      H2597   1.405       .  S
C2601      C2602   1.424       .  A
C2601      C2606   1.453       .  A
C2602      C2603   1.403       .  A
C2602      H2611   1.071       .  S
C2603      C2604   1.408       .  A
C2603      S2607   1.798       .  S
C2604      C2605   1.389       .  A
C2605      C2606   1.414       .  A
S2607      H2610   1.397       .  S
C2613      C2614   1.398       .  A
C2613      C2618   1.413       .  A
C2614      C2615   1.421       .  A
C2615      C2616   1.446       .  A
C2616      C2617   1.419       .  A
C2617      C2618   1.405       .  A
C2617      H2624   1.075       .  S
C2618      S2620   1.803       .  S
S2619      H2622   1.408       .  S
S2620      H2621   1.406       .  S
C2625      C2626   1.426       .  A
C2625      C2630   1.434       .  A
C2626      C2627   1.401       .  A
C2627      C2628   1.404       .  A
C2628      C2629   1.400       .  A
C2629      C2630   1.409       .  A
C2629      H2636   1.083       .  S
C2630      S2632   1.805       .  S
S2631      H2634   1.406       .  S
S2632      H2633   1.406       .  S
C2637      C2638   1.417       .  A
C2637      C2642   1.436       .  A
C2638      C2639   1.414       .  A
C2638      H2647   1.071       .  S
C2641      C2642   1.384   1_545  A
C2642      S2644   1.816       .  S
S2643      H2646   1.408       .  S
S2644      H2645   1.407   1_565  S
C2649      C2650   1.422       .  A
C2649      C2654   1.435       .  A
C2650      C2651   1.389       .  A
C2650      H2659   1.077       .  S
C2651      C2652   1.399       .  A
C2651      S2655   1.797       .  S
C2652      C2653   1.399       .  A
C2653      C2654   1.414       .  A
C2653      H2660   1.083       .  S
C2654      S2656   1.805       .  S
S2655      H2658   1.397       .  S
S2656      H2657   1.407       .  S
C2661      C2662   1.408       .  A
C2661      C2666   1.431       .  A
C2662      C2663   1.378       .  A
C2662      H2671   1.078       .  S
C2663      C2664   1.435       .  A
C2663      S2667   1.818       .  S
C2664      C2665   1.426       .  A
C2665      C2666   1.420       .  A
C2665      H2672   1.083       .  S
S2667      H2670   1.409       .  S
C2673      C2674   1.415       .  A
C2673      C2678   1.442       .  A
C2674      C2675   1.399       .  A
C2674      H2683   1.082       .  S
C2675      C2676   1.413       .  A
C2675      S2679   1.805       .  S
C2676      C2677   1.388       .  A
C2677      C2678   1.389       .  A
C2677      H2684   1.083       .  S
C2678      S2680   1.807       .  S
S2679      H2682   1.403       .  S
S2680      H2681   1.407       .  S
C2685      C2686   1.419       .  A
C2685      C2690   1.445   1_554  A
C2686      C2687   1.368   1_554  A
C2686      H2695   1.072       .  S
C2687      C2688   1.415       .  A
C2687      S2691   1.808       .  S
C2688      C2689   1.419       .  A
C2689      C2690   1.432       .  A
C2689      H2696   1.082   1_565  S
S2691      H2694   1.408   1_556  S
C2697      C2698   1.410       .  A
C2698      C2699   1.417       .  A
C2698      H2707   1.078       .  S
C2699      C2700   1.448       .  A
C2699      S2703   1.795       .  S
C2700      C2701   1.404       .  A
C2702      S2704   1.817       .  S
S2703      H2706   1.406       .  S
S2704      H2705   1.396       .  S
C2709      C2710   1.416       .  A
C2709      C2714   1.453       .  A
C2710      C2711   1.399       .  A
C2710      H2719   1.076       .  S
C2711      C2712   1.410       .  A
C2711      S2715   1.800       .  S
C2712      C2713   1.386       .  A
C2713      C2714   1.391       .  A
C2713      H2720   1.085       .  S
C2714      S2716   1.816       .  S
S2715      H2718   1.406       .  S
S2716      H2717   1.396       .  S
C2721      C2722   1.403       .  A
C2721      C2726   1.405       .  A
C2722      C2723   1.407       .  A
C2722      H2731   1.083       .  S
C2723      C2724   1.433       .  A
C2723      S2727   1.794       .  S
C2724      C2725   1.429       .  A
C2725      C2726   1.401       .  A
C2725      H2732   1.077       .  S
C2726      S2728   1.802       .  S
S2727      H2730   1.408   1_556  S
S2728      H2729   1.404       .  S
C2733      C2734   1.387       .  A
C2733      C2738   1.403       .  A
C2734      C2735   1.402       .  A
C2734      H2743   1.084       .  S
C2735      C2736   1.447       .  A
C2735      S2739   1.806       .  S
C2736      C2737   1.406       .  A
C2737      C2738   1.383       .  A
C2737      H2744   1.078       .  S
C2738      S2740   1.786       .  S
S2739      H2742   1.408       .  S
S2740      H2741   1.404       .  S
C2745      C2746   1.388       .  A
C2745      C2750   1.412       .  A
C2746      C2747   1.390       .  A
C2746      H2755   1.085       .  S
C2747      C2748   1.449       .  A
C2747      S2751   1.818       .  S
C2748      C2749   1.413       .  A
C2749      C2750   1.404       .  A
C2749      H2756   1.083       .  S
C2750      S2752   1.798       .  S
S2751      H2754   1.396       .  S
S2752      H2753   1.405       .  S
C2757      C2758   1.432       .  A
C2757      C2762   1.452       .  A
C2758      C2759   1.417       .  A
C2758      H2767   1.084       .  S
C2759      C2760   1.412       .  A
C2759      S2763   1.794       .  S
C2760      C2761   1.398       .  A
C2761      C2762   1.405       .  A
C2761      H2768   1.083       .  S
C2762      S2764   1.813       .  S
S2763      H2766   1.407       .  S
S2764      H2765   1.408       .  S
C2769      C2770   1.407       .  A
C2769      C2774   1.403       .  A
C2770      C2771   1.412       .  A
C2771      C2772   1.440       .  A
C2771      S2775   1.812       .  S
C2772      C2773   1.414       .  A
C2773      C2774   1.389       .  A
C2773      H2780   1.067       .  S
C2774      S2776   1.806   1_655  S
S2775      H2778   1.396       .  S
S2776      H2777   1.408       .  S
C2781      C2782   1.434       .  A
C2781      C2786   1.445       .  A
C2782      C2783   1.388       .  A
C2782      H2791   1.080       .  S
C2783      C2784   1.394       .  A
C2784      C2785   1.400       .  A
C2785      C2786   1.403       .  A
C2785      H2792   1.085       .  S
C2786      S2788   1.811       .  S
S2787      H2790   1.400       .  S
S2788      H2789   1.389       .  S
C2793      C2794   1.391   1_565  A
C2793      C2798   1.413       .  A
C2794      C2795   1.400   1_545  A
C2795      C2796   1.446       .  A
C2796      C2797   1.421       .  A
C2797      C2798   1.406       .  A
S2799      H2802   1.408       .  S
S2800      H2801   1.407       .  S
C2805      C2806   1.398   1_655  A
C2805      C2810   1.414       .  A
C2806      C2807   1.409       .  A
C2807      C2808   1.439   1_455  A
C2808      C2809   1.415       .  A
C2809      C2810   1.407       .  A
C2809      H2816   1.081       .  S
C2810      S2812   1.801       .  S
S2812      H2813   1.404       .  S
