geometry optimzed in LAMMPS
_audit_creation_date              2020-11-30 
_audit_creation_method            'lammps2cif' 
_symmetry_space_group_name_H-M    'P1' 
_symmetry_Int_Tables_number       1 
_symmetry_cell_setting            triclinic 
loop_ 
_symmetry_equiv_pos_as_xyz 
  x,y,z 
_cell_length_a                    47.32847961 
_cell_length_b                    47.313455799561986 
_cell_length_c                    47.36901477809775 
_cell_angle_alpha                 90.17039252373537 
_cell_angle_beta                  89.98048366180969 
_cell_angle_gamma                 89.61609785015595 
loop_ 
_atom_site_label 
_atom_site_type_symbol 
_atom_site_fract_x 
_atom_site_fract_y 
_atom_site_fract_z 
_atom_site_charge 
Zn1        Zn  0.50383410  0.48267275  0.02291037     1.49700
Zn2        Zn  0.45696993  0.48187708  0.97309765     1.49400
Zn3        Zn  0.45531535  0.53021132  0.02250617     1.49100
Zn4        Zn  0.50429410  0.52974373  0.97364808     1.49500
O5          O  0.48002053  0.50624899  0.99800509    -1.83800
O6          O  0.49781272  0.44099041  0.01480121    -0.74400
O7          O  0.41521214  0.48721186  0.98220346    -0.74200
O8          O  0.46203417  0.52312427  0.06489310    -0.73800
O9          O  0.46666525  0.44041005  0.97973916    -0.74400
O10         O  0.49558254  0.49020628  0.06468845    -0.74000
O11         O  0.41380645  0.52105668  0.01491480    -0.74600
O12         O  0.49730330  0.57122390  0.98325758    -0.74000
O13         O  0.46359327  0.48990209  0.93089419    -0.74800
O14         O  0.46330322  0.57220876  0.01574141    -0.74200
O15         O  0.49661854  0.52295108  0.93112887    -0.74600
O16         O  0.54622607  0.52129667  0.98109476    -0.74500
O17         O  0.54549843  0.48996556  0.01589146    -0.74300
C18         C  0.48295915  0.42743792  0.99690936     0.77500
C19         C  0.40128021  0.50315283  0.99907787     0.78000
C20         C  0.47879021  0.50662552  0.07819185     0.76900
C21         C  0.48103301  0.58498172  0.00000213     0.77300
C22         C  0.48012508  0.50643914  0.91756319     0.78400
C23         C  0.55918464  0.50527408  0.99856594     0.77500
Zn24       Zn  0.49688650  0.03530074  0.47735981     1.49700
Zn25       Zn  0.54259902  0.03034929  0.52817783     1.49400
Zn26       Zn  0.49047867  0.98575512  0.52332679     1.49100
Zn27       Zn  0.54198429  0.98288005  0.47864943     1.49500
O28         O  0.51807253  0.00863963  0.50188537    -1.83800
O29         O  0.50654861  0.07644326  0.48685473    -0.74400
O30         O  0.53328582  0.02021425  0.56934240    -0.74200
O31         O  0.44959152  0.99625725  0.51356704    -0.73800
O32         O  0.53670489  0.07320277  0.52282611    -0.74400
O33         O  0.45398063  0.03060263  0.48192254    -0.74000
O34         O  0.49643191  0.99131667  0.56552408    -0.74600
O35         O  0.53247666  0.94125525  0.48627665    -0.74000
O36         O  0.58464815  0.02163884  0.52082980    -0.74800
O37         O  0.49554667  0.94359858  0.51531522    -0.74200
O38         O  0.58420171  0.98914550  0.48671035    -0.74600
O39         O  0.53515272  0.99024654  0.43664453    -0.74500
O40         O  0.50615471  0.02757861  0.43594048    -0.74300
C41         C  0.52220384  0.08800543  0.50549087     0.77500
C42         C  0.51422514  0.00484246  0.58050879     0.78000
C43         C  0.43863017  0.01429597  0.49679819     0.76900
C44         C  0.51323509  0.92925896  0.50076000     0.77300
C45         C  0.59764838  0.00508882  0.50379491     0.78400
C46         C  0.52088055  0.00879942  0.42317702     0.77500
Zn47       Zn  0.01698010  0.51905438  0.52025699     1.49700
Zn48       Zn  0.96870367  0.52155742  0.47173077     1.49400
Zn49       Zn  0.01635594  0.47135454  0.47194911     1.49100
Zn50       Zn  0.96639078  0.47279400  0.51912606     1.49500
O51         O  0.99203576  0.49617114  0.49570713    -1.83800
O52         O  0.01047329  0.56110130  0.51369059    -0.74400
O53         O  0.97652613  0.51330845  0.42993059    -0.74200
O54         O  0.05861616  0.47878822  0.47856469    -0.73800
O55         O  0.97777888  0.56317488  0.47992936    -0.74400
O56         O  0.05901490  0.51083055  0.51298921    -0.74000
O57         O  0.00791556  0.47791639  0.43010243    -0.74600
O58         O  0.97438549  0.43050576  0.51263238    -0.74000
O59         O  0.92623551  0.51597803  0.47897876    -0.74800
O60         O  0.00950274  0.42980206  0.48125932    -0.74200
O61         O  0.92458250  0.48175451  0.51106547    -0.74600
O62         O  0.97300504  0.48066261  0.56093924    -0.74500
O63         O  0.00868956  0.51114865  0.56159012    -0.74300
C64         C  0.99458027  0.57528284  0.49717291     0.77500
C65         C  0.99212875  0.49541153  0.41688798     0.78000
C66         C  0.07206046  0.49465455  0.49568712     0.76900
C67         C  0.99236943  0.41700457  0.49755289     0.77300
C68         C  0.91218840  0.49957051  0.49500100     0.78400
C69         C  0.99062122  0.49593121  0.57434985     0.77500
Zn70       Zn  0.98170130  0.97082246  0.02924189     1.49700
Zn71       Zn  0.98343714  0.01380233  0.97686215     1.49400
Zn72       Zn  0.03030582  0.01873290  0.02603241     1.49100
Zn73       Zn  0.03185985  0.96583472  0.98344613     1.49500
O74         O  0.00682142  0.99233878  0.00393348    -1.83800
O75         O  0.94026494  0.98121388  0.02266985    -0.74400
O76         O  0.98923365  0.05594102  0.98176116    -0.74200
O77         O  0.02460388  0.01190823  0.06803985    -0.73800
O78         O  0.94154636  0.00687592  0.98335875    -0.74400
O79         O  0.99172814  0.97845248  0.07042449    -0.74000
O80         O  0.01991463  0.05989493  0.01717479    -0.74600
O81         O  0.07347597  0.97264112  0.99275141    -0.74000
O82         O  0.99362084  0.00349275  0.93628116    -0.74800
O83         O  0.07240453  0.01258338  0.01773332    -0.74200
O84         O  0.02786358  0.97136677  0.94123053    -0.74600
O85         O  0.02122912  0.92494812  0.99150895    -0.74500
O86         O  0.98545768  0.92838539  0.02191294    -0.74300
C87         C  0.92778647  0.99460484  0.00289271     0.77500
C88         C  0.00367983  0.07099624  0.99870407     0.78000
C89         C  0.00899516  0.99533112  0.08228949     0.76900
C90         C  0.08611581  0.99285499  0.00526823     0.77300
C91         C  0.01192761  0.98659646  0.92575427     0.78400
C92         C  0.00212662  0.91358493  0.00662202     0.77500
C93         C  0.63491173  0.48337988  0.01640692     0.03500
C94         C  0.60524236  0.48481106  0.01648595    -0.12700
C95         C  0.59075568  0.50406980  0.99867442     0.01000
C96         C  0.60673410  0.52174508  0.98075167    -0.11200
C97         C  0.63643732  0.51986233  0.98034876     0.03400
C98         C  0.65012680  0.50084744  0.99838284    -0.10600
H99         H  0.59360554  0.47103605  0.03045702     0.09000
H100        H  0.59619737  0.53653469  0.96679811     0.06600
H101        H  0.67302999  0.49966443  0.99850315     0.06400
C102        C  0.32486022  0.51160738  0.02420976     0.03500
C103        C  0.35415596  0.51588817  0.02081321    -0.12700
C104        C  0.36996660  0.49999870  0.00104195     0.01000
C105        C  0.35578068  0.48021232  0.98394478    -0.11200
C106        C  0.32665936  0.47558373  0.98719915     0.03400
C107        C  0.31154838  0.49096633  0.00758872    -0.10600
H108        H  0.36466139  0.53174696  0.03345960     0.09000
H109        H  0.36736806  0.46804187  0.96830618     0.06600
H110        H  0.28916624  0.48705778  0.01012142     0.06400
C111        C  0.01030274  0.51443367  0.34110341     0.03500
C112        C  0.01000734  0.51400439  0.37091063    -0.12700
C113        C  0.99230205  0.49530478  0.38563888     0.01000
C114        C  0.97491167  0.47665764  0.37038136    -0.11200
C115        C  0.97500707  0.47705630  0.34070690     0.03400
C116        C  0.99235852  0.49603770  0.32642526    -0.10600
H117        H  0.02376088  0.52787923  0.38275153     0.09000
H118        H  0.96129207  0.46210928  0.38148961     0.06600
H119        H  0.99140572  0.49661910  0.30357818     0.06400
C120        C  0.98103950  0.14743223  0.00967320     0.03500
C121        C  0.99679457  0.16064219  0.98854448    -0.12700
C122        C  0.01528089  0.14502846  0.97138585     0.01000
C123        C  0.01790487  0.11572670  0.97531479    -0.11200
C124        C  0.00192286  0.10204193  0.99616050     0.03400
C125        C  0.98349133  0.11801048  0.01342953    -0.10600
H126        H  0.99504624  0.18334029  0.98580045     0.09000
H127        H  0.03218236  0.10358231  0.96202949     0.06600
H128        H  0.97108198  0.10763484  0.02953845     0.06400
C129        C  0.97372716  0.51186163  0.65134025     0.03500
C130        C  0.99311191  0.49366850  0.66452696    -0.12700
C131        C  0.01143505  0.47656450  0.64873695     0.01000
C132        C  0.01062268  0.47759457  0.61920068    -0.11200
C133        C  0.99093987  0.49516918  0.60546859     0.03400
C134        C  0.97229274  0.51215584  0.62158878    -0.10600
H135        H  0.99395831  0.49271657  0.68738647     0.09000
H136        H  0.02492490  0.46442214  0.60695109     0.06600
H137        H  0.95737392  0.52602617  0.61106478     0.06400
Zn138      Zn  0.14279402  0.29875794  0.79380921     1.49700
Zn139      Zn  0.20272871  0.28794665  0.78017629     1.49400
Zn140      Zn  0.19346034  0.34577374  0.79681912     1.49100
Zn141      Zn  0.19164359  0.29534935  0.84234409     1.49500
O142        O  0.18070718  0.30820565  0.80552190    -1.83800
O143        O  0.14249917  0.27063380  0.76020867    -0.74400
O144        O  0.20864620  0.30980458  0.74524770    -0.74200
O145        O  0.16024391  0.36638977  0.77854711    -0.73800
O146        O  0.18498447  0.25294350  0.76848490    -0.74400
O147        O  0.12502427  0.33501584  0.77991396    -0.74000
O148        O  0.22738878  0.34451420  0.76943936    -0.74600
O149        O  0.20610047  0.32894262  0.86510089    -0.74000
O150        O  0.23940018  0.27732995  0.79698209    -0.74800
O151        O  0.20748187  0.36335172  0.83291819    -0.74200
O152        O  0.22369709  0.26615655  0.83960204    -0.74600
O153        O  0.15758596  0.27627547  0.85913853    -0.74500
O154        O  0.12310278  0.27994698  0.82703299    -0.74300
C155        C  0.16202371  0.25273351  0.75489063     0.77500
C156        C  0.22727439  0.32858771  0.74775922     0.78000
C157        C  0.13469369  0.35931152  0.77327345     0.76900
C158        C  0.21230457  0.35417461  0.85782052     0.77300
C159        C  0.24194006  0.26373595  0.81991943     0.78400
C160        C  0.13239773  0.27119302  0.85086208     0.77500
C161        C  0.01548420  0.83698308  0.02581451     0.03500
C162        C  0.01605132  0.86673774  0.02609006    -0.12700
C163        C  0.99978700  0.88245125  0.00686094     0.01000
C164        C  0.98236454  0.86823514  0.98737745    -0.11200
C165        C  0.98190985  0.83845703  0.98667819     0.03400
C166        C  0.99852246  0.82319184  0.00586858    -0.10600
H167        H  0.02917892  0.87776920  0.04121511     0.09000
H168        H  0.96978957  0.88022158  0.97244985     0.06600
H169        H  0.99840324  0.80030170  0.00497195     0.06400
Zn170      Zn  0.85028582  0.68433921  0.81074064     1.49700
Zn171      Zn  0.80061136  0.69121662  0.85822473     1.49400
Zn172      Zn  0.79104109  0.70032362  0.79712409     1.49100
Zn173      Zn  0.79674568  0.64099877  0.81135389     1.49500
O174        O  0.81151057  0.67744226  0.82147613    -1.83800
O175        O  0.87065757  0.70183576  0.84493955    -0.74400
O176        O  0.77058338  0.72281568  0.85624352    -0.74200
O177        O  0.81190053  0.73497975  0.78848571    -0.73800
O178        O  0.83568657  0.70765530  0.87632573    -0.74400
O179        O  0.85202197  0.71317052  0.77808894    -0.74000
O180        O  0.75481748  0.71166101  0.81381402    -0.74600
O181        O  0.76226129  0.64549254  0.78481793    -0.74000
O182        O  0.78227453  0.65854839  0.87877088    -0.74800
O183        O  0.78157058  0.68056799  0.76151017    -0.74200
O184        O  0.78194074  0.62314400  0.84723043    -0.74600
O185        O  0.82868363  0.61935459  0.79093314    -0.74500
O186        O  0.86640571  0.64743342  0.79524237    -0.74300
C187        C  0.86135145  0.71122172  0.86864397     0.77500
C188        C  0.75247914  0.72559884  0.83653973     0.78000
C189        C  0.83479301  0.73370494  0.77477347     0.76900
C190        C  0.76225667  0.66231687  0.76389620     0.77300
C191        C  0.77564592  0.63337733  0.87149821     0.78400
C192        C  0.85486221  0.62462811  0.78643600     0.77500
Zn193      Zn  0.79208217  0.29643231  0.19321222     1.49700
Zn194      Zn  0.85113113  0.30559086  0.17791514     1.49400
Zn195      Zn  0.80094618  0.30642452  0.13108037     1.49100
Zn196      Zn  0.80359772  0.35585510  0.17950067     1.49500
O197        O  0.81341876  0.31780222  0.16829190    -1.83800
O198        O  0.81291126  0.28832908  0.22864288    -0.74400
O199        O  0.86981948  0.29084481  0.14243885    -0.74200
O200        O  0.77110681  0.27511838  0.13368312    -0.73800
O201        O  0.84999116  0.27194953  0.20559845    -0.74400
O202        O  0.78294811  0.25985095  0.17618422    -0.74000
O203        O  0.83526336  0.28968152  0.11025577    -0.74600
O204        O  0.78398731  0.37466086  0.14598970    -0.74000
O205        O  0.87084083  0.33915954  0.19662893    -0.74800
O206        O  0.78153241  0.34068947  0.11311697    -0.74200
O207        O  0.83908671  0.37434515  0.19433343    -0.74600
O208        O  0.77524730  0.35662013  0.21255288    -0.74500
O209        O  0.75601943  0.31532628  0.20297152    -0.74300
C210        C  0.83323208  0.27090824  0.22658815     0.77500
C211        C  0.86068209  0.28412174  0.11793407     0.78000
C212        C  0.76879722  0.25728214  0.15364268     0.76900
C213        C  0.77547378  0.36565296  0.12192267     0.77300
C214        C  0.86325410  0.36470003  0.20189941     0.78400
C215        C  0.75582509  0.33853838  0.21629881     0.77500
Zn216      Zn  0.17987539  0.68838285  0.24460966     1.49700
Zn217      Zn  0.22888797  0.68508690  0.19851851     1.49400
Zn218      Zn  0.16512523  0.66909842  0.18043634     1.49100
Zn219      Zn  0.18343195  0.73318895  0.19605539     1.49500
O220        O  0.18903665  0.69348760  0.20469970    -1.83800
O221        O  0.21370099  0.67462330  0.26667258    -0.74400
O222        O  0.23386996  0.65373133  0.17121966    -0.74200
O223        O  0.13824235  0.64568471  0.20560763    -0.73800
O224        O  0.24760217  0.67379602  0.23423323    -0.74400
O225        O  0.14854830  0.66137307  0.24875511    -0.74000
O226        O  0.19069007  0.64174352  0.15715674    -0.74600
O227        O  0.15553298  0.73753250  0.16584265    -0.74000
O228        O  0.25145486  0.71923631  0.18699019    -0.74800
O229        O  0.14132196  0.69439551  0.15354752    -0.74200
O230        O  0.21859191  0.75269200  0.18440322    -0.74600
O231        O  0.17275949  0.75626908  0.22985944    -0.74500
O232        O  0.16901359  0.72483612  0.26427392    -0.74300
C233        C  0.23948905  0.67153069  0.25964511     0.77500
C234        C  0.21756975  0.63832345  0.15652096     0.78000
C235        C  0.13415296  0.64580092  0.23233531     0.76900
C236        C  0.14062612  0.72129982  0.15061074     0.77300
C237        C  0.24426869  0.74496859  0.18375058     0.78400
C238        C  0.16895472  0.75023418  0.25564525     0.77500
C239        C  0.50627862  0.35164573  0.01219682     0.03500
C240        C  0.50433548  0.38129701  0.01322232    -0.12700
C241        C  0.48493726  0.39600040  0.99585991     0.01000
C242        C  0.46773325  0.38042805  0.97719096    -0.11200
C243        C  0.47011246  0.35086295  0.97557234     0.03400
C244        C  0.48923548  0.33670913  0.99322614    -0.10600
H245        H  0.51770388  0.39276774  0.02778733     0.09000
H246        H  0.45279637  0.39121533  0.96356960     0.06600
H247        H  0.49083538  0.31385062  0.99222380     0.06400
C248        C  0.50497520  0.65986365  0.98394610     0.03500
C249        C  0.50244363  0.63038120  0.98324956    -0.12700
C250        C  0.48333657  0.61645148  0.00129166     0.01000
C251        C  0.46724382  0.63281354  0.02067871    -0.11200
C252        C  0.46978916  0.66254978  0.02143178     0.03400
C253        C  0.48861997  0.67563655  0.00289113    -0.10600
H254        H  0.51523549  0.61843296  0.96839667     0.09000
H255        H  0.45270506  0.62257573  0.03497706     0.06600
H256        H  0.49122326  0.69838138  0.00370669     0.06400
C257        C  0.53663568  0.02730237  0.34689989     0.03500
C258        C  0.51804605  0.00920243  0.33289508    -0.12700
C259        C  0.50038378  0.99084437  0.34776324     0.01000
C260        C  0.50211755  0.99020957  0.37746729    -0.11200
C261        C  0.52081012  0.00823874  0.39196548     0.03400
C262        C  0.53815176  0.02673633  0.37653802    -0.10600
H263        H  0.51751262  0.00942451  0.31001387     0.09000
H264        H  0.48838135  0.97640377  0.38935438     0.06600
H265        H  0.55225694  0.04097174  0.38752046     0.06400
C266        C  0.16370167  0.97816636  0.02173109     0.03500
C267        C  0.13389135  0.97762048  0.02321365    -0.12700
C268        C  0.11738479  0.99390752  0.00445129     0.01000
C269        C  0.13086967  0.01095513  0.98428449    -0.11200
C270        C  0.16051819  0.01128954  0.98231479     0.03400
C271        C  0.17656962  0.99500386  0.00113133    -0.10600
H272        H  0.12355588  0.96448999  0.03875253     0.09000
H273        H  0.11830182  0.02348738  0.96979018     0.06600
H274        H  0.19941364  0.99621371  0.00024523     0.06400
C275        C  0.85093562  0.01490591  0.01576170     0.03500
C276        C  0.83754720  0.99538598  0.99816936    -0.12700
C277        C  0.85313169  0.97582501  0.98228699     0.01000
C278        C  0.88268272  0.97537947  0.98436677    -0.11200
C279        C  0.89662037  0.99493823  0.00182414     0.03400
C280        C  0.88066432  0.01489217  0.01743758    -0.10600
H281        H  0.81467143  0.99558518  0.99661584     0.09000
H282        H  0.89481356  0.96028731  0.97199261     0.06600
H283        H  0.89123910  0.03007380  0.03087246     0.06400
Zn284      Zn  0.69841027  0.79692652  0.85936031     1.49700
Zn285      Zn  0.64749265  0.79945887  0.81308108     1.49400
Zn286      Zn  0.69636610  0.84659293  0.81117923     1.49100
Zn287      Zn  0.70694049  0.78674447  0.79847338     1.49500
O288        O  0.68568404  0.80920743  0.82262004    -1.83800
O289        O  0.66423307  0.78112084  0.87993407    -0.74400
O290        O  0.62840915  0.83386031  0.79459894    -0.74200
O291        O  0.71532579  0.86462918  0.84510858    -0.73800
O292        O  0.62893339  0.78573009  0.84873790    -0.74400
O293        O  0.71722425  0.83044382  0.87772129    -0.74000
O294        O  0.66204727  0.86678155  0.79546224    -0.74600
O295        O  0.74354747  0.80419691  0.78955040    -0.74000
O296        O  0.64761973  0.76618179  0.78500015    -0.74800
O297        O  0.72512329  0.84572254  0.77874066    -0.74200
O298        O  0.68616088  0.78022538  0.76302674    -0.74600
O299        O  0.71525352  0.74964382  0.81518073    -0.74500
O300        O  0.72864950  0.76565314  0.85684013    -0.74300
C301        C  0.63837191  0.77783925  0.87277529     0.77500
C302        C  0.63729983  0.85862701  0.78849650     0.78000
C303        C  0.72326420  0.85531921  0.86923096     0.76900
C304        C  0.74429684  0.82699882  0.77573165     0.77300
C305        C  0.66485598  0.76427028  0.76442722     0.78400
C306        C  0.73040858  0.74741469  0.83710681     0.77500
C307        C  0.52400645  0.97831466  0.65560862     0.03500
C308        C  0.52821118  0.98226203  0.62641233    -0.12700
C309        C  0.51223598  0.00266732  0.61159898     0.01000
C310        C  0.49281018  0.01979527  0.62640355    -0.11200
C311        C  0.48866582  0.01604234  0.65553257     0.03400
C312        C  0.50397343  0.99506403  0.66976442    -0.10600
H313        H  0.54335789  0.96912843  0.61519702     0.09000
H314        H  0.48057229  0.03563042  0.61520926     0.06600
H315        H  0.50097588  0.99244569  0.69230502     0.06400
Zn316      Zn  0.29701915  0.19434101  0.84491237     1.49700
Zn317      Zn  0.29011457  0.20362379  0.78395009     1.49400
Zn318      Zn  0.34818200  0.19437372  0.79990276     1.49100
Zn319      Zn  0.30122838  0.14358456  0.79783740     1.49500
O320        O  0.31073973  0.18180624  0.80885039    -1.83800
O321        O  0.26558825  0.22407636  0.84065597    -0.74400
O322        O  0.31083591  0.20968805  0.74833654    -0.74200
O323        O  0.36586667  0.21024996  0.83514941    -0.73800
O324        O  0.28106567  0.24097093  0.80015566    -0.74400
O325        O  0.32964365  0.21329264  0.86533939    -0.74000
O326        O  0.34671629  0.22736899  0.77181493    -0.74600
O327        O  0.33741855  0.12577837  0.78233682    -0.74000
O328        O  0.25410540  0.18577175  0.77545888    -0.74800
O329        O  0.36892527  0.16091281  0.78241882    -0.74200
O330        O  0.27025252  0.14279941  0.76641223    -0.74600
O331        O  0.28519419  0.12445063  0.83299192    -0.74500
O332        O  0.28066065  0.15997468  0.86414619    -0.74300
C333        C  0.26458720  0.24257411  0.82118393     0.77500
C334        C  0.33033332  0.22769391  0.75055575     0.78000
C335        C  0.35528248  0.21849158  0.85861275     0.76900
C336        C  0.36196194  0.13545949  0.77649482     0.77300
C337        C  0.25184927  0.16230988  0.76279794     0.78400
C338        C  0.27695252  0.13416779  0.85692900     0.77500
Zn339      Zn  0.27748267  0.82784756  0.20065181     1.49700
Zn340      Zn  0.32473912  0.82930473  0.24689397     1.49400
Zn341      Zn  0.32540942  0.78096118  0.20158739     1.49100
Zn342      Zn  0.34112349  0.84400983  0.18154007     1.49500
O343        O  0.31741385  0.82096308  0.20716990    -1.83800
O344        O  0.25700245  0.83785457  0.23667388    -0.74400
O345        O  0.33289896  0.79481814  0.27003884    -0.74200
O346        O  0.29156938  0.75960090  0.18812507    -0.73800
O347        O  0.29138064  0.84499005  0.26770175    -0.74400
O348        O  0.25797906  0.79258783  0.18726653    -0.74000
O349        O  0.33469759  0.76120276  0.23747356    -0.74600
O350        O  0.36553863  0.81718325  0.15601304    -0.74000
O351        O  0.35695282  0.85486240  0.24996956    -0.74800
O352        O  0.35650008  0.77501353  0.17457383    -0.74200
O353        O  0.36813006  0.86855968  0.20634092    -0.74600
O354        O  0.31490232  0.86938137  0.15653314    -0.74500
O355        O  0.27207971  0.85858200  0.17277201    -0.74300
C356        C  0.26535480  0.84359568  0.26152117     0.77500
C357        C  0.33523352  0.76901025  0.26311335     0.78000
C358        C  0.26592574  0.76693530  0.18486735     0.76900
C359        C  0.36976415  0.79040416  0.15719196     0.77300
C360        C  0.37204339  0.86916293  0.23314832     0.78400
C361        C  0.28797523  0.87274843  0.15651139     0.77500
Zn362      Zn  0.69739694  0.20360200  0.13133303     1.49700
Zn363      Zn  0.70044987  0.15333503  0.17756440     1.49400
Zn364      Zn  0.70829933  0.21115904  0.19370288     1.49100
Zn365      Zn  0.64851845  0.19872452  0.18008854     1.49500
O366        O  0.68682395  0.19052276  0.16843394    -1.83800
O367        O  0.71248987  0.16925887  0.10934766    -0.74400
O368        O  0.73593049  0.15488732  0.20295663    -0.74200
O369        O  0.74433849  0.22185531  0.17657994    -0.73800
O370        O  0.71180667  0.13445354  0.14125227    -0.74400
O371        O  0.72912207  0.23299498  0.13379199    -0.74000
O372        O  0.71704176  0.18911882  0.22821661    -0.74600
O373        O  0.64724192  0.22748696  0.21281429    -0.74000
O374        O  0.66903403  0.13367696  0.19910377    -0.74800
O375        O  0.68910464  0.24632137  0.20491867    -0.74200
O376        O  0.63169550  0.16277707  0.19608618    -0.74600
O377        O  0.62838440  0.21707744  0.14654297    -0.74500
O378        O  0.66266191  0.22314977  0.11453897    -0.74300
C379        C  0.71730563  0.14355281  0.11648259     0.77500
C380        C  0.73593055  0.17031551  0.22499600     0.78000
C381        C  0.74693342  0.23557860  0.15379969     0.76900
C382        C  0.66545908  0.24663412  0.21735220     0.77300
C383        C  0.64327206  0.13986332  0.20478182     0.78400
C384        C  0.63722065  0.22706615  0.12302419     0.77500
C385        C  0.50042363  0.48919697  0.15388943     0.03500
C386        C  0.48144391  0.50580021  0.16931825    -0.12700
C387        C  0.46135707  0.52293337  0.15599674     0.01000
C388        C  0.46048818  0.52366188  0.12614313    -0.11200
C389        C  0.47916588  0.50647776  0.10989415     0.03400
C390        C  0.49891443  0.48914015  0.12425532    -0.10600
H391        H  0.48247635  0.50554690  0.19219371     0.09000
H392        H  0.44525865  0.53728036  0.11575422     0.06600
H393        H  0.51361191  0.47601595  0.11246372     0.06400
C394        C  0.83579470  0.51862643  0.51366192     0.03500
C395        C  0.82156921  0.50166727  0.49405874    -0.12700
C396        C  0.83600300  0.48589260  0.47348502     0.01000
C397        C  0.86581065  0.48549009  0.47398325    -0.11200
C398        C  0.88079122  0.50087206  0.49456403     0.03400
C399        C  0.86565964  0.51767188  0.51424298    -0.10600
H400        H  0.79874941  0.50058390  0.49504924     0.09000
H401        H  0.87746101  0.47340461  0.45834265     0.06600
H402        H  0.87710907  0.53026976  0.52949664     0.06400
Zn403      Zn  0.67564426  0.27973804  0.29977058     1.49700
Zn404      Zn  0.66071233  0.34328767  0.32124207     1.49400
Zn405      Zn  0.72327688  0.32615866  0.29939329     1.49100
Zn406      Zn  0.67537275  0.32819018  0.25494317     1.49500
O407        O  0.68329133  0.31979021  0.29428448    -1.83800
O408        O  0.64893665  0.27437674  0.33060358    -0.74400
O409        O  0.68783622  0.36914414  0.34458899    -0.74200
O410        O  0.74344736  0.29142820  0.31179231    -0.73800
O411        O  0.63933888  0.31637714  0.34962808    -0.74400
O412        O  0.71052673  0.25832498  0.31082912    -0.74000
O413        O  0.72958631  0.35463695  0.32830971    -0.74600
O414        O  0.70894776  0.34136245  0.23259432    -0.74000
O415        O  0.63249481  0.36769949  0.29722941    -0.74800
O416        O  0.74345703  0.33699480  0.26393588    -0.74200
O417        O  0.64370013  0.35519633  0.25299697    -0.74600
O418        O  0.66609878  0.29343329  0.23303984    -0.74500
O419        O  0.66196908  0.25954832  0.26497299    -0.74300
C420        C  0.63690185  0.28934891  0.34937995     0.77500
C421        C  0.71491276  0.36984246  0.34488458     0.78000
C422        C  0.73598139  0.26585981  0.31427232     0.76900
C423        C  0.73501965  0.34115077  0.23887443     0.77300
C424        C  0.62864400  0.36919217  0.27041740     0.78400
C425        C  0.66221709  0.26777650  0.23950087     0.77500
C426        C  0.54324810  0.16447300  0.49155836     0.03500
C427        C  0.54289393  0.13458291  0.49087381    -0.12700
C428        C  0.52326483  0.11934224  0.50715437     0.01000
C429        C  0.50376140  0.13422520  0.52414189    -0.11200
C430        C  0.50407894  0.16398941  0.52532401     0.03400
C431        C  0.52390674  0.17870795  0.50910710    -0.10600
H432        H  0.55757677  0.12315046  0.47743566     0.09000
H433        H  0.48832407  0.12265669  0.53634220     0.06600
H434        H  0.52305642  0.20159578  0.50890471     0.06400
C435        C  0.52597359  0.85283036  0.52184473     0.03500
C436        C  0.50796909  0.83890264  0.50316567    -0.12700
C437        C  0.49175625  0.85370010  0.48340605     0.01000
C438        C  0.49309406  0.88346599  0.48279802    -0.11200
C439        C  0.51160408  0.89797709  0.50115773     0.03400
C440        C  0.52820569  0.88244676  0.52048474    -0.10600
H441        H  0.50658172  0.81605191  0.50400306     0.09000
H442        H  0.48020165  0.89518911  0.46792508     0.06600
H443        H  0.54232974  0.89338778  0.53475131     0.06400
Zn444      Zn  0.32120063  0.68619004  0.29532027     1.49700
Zn445      Zn  0.27454466  0.68292628  0.34167106     1.49400
Zn446      Zn  0.33968353  0.66518489  0.35718413     1.49100
Zn447      Zn  0.31939289  0.73075449  0.34448996     1.49500
O448        O  0.31427549  0.69080501  0.33522752    -1.83800
O449        O  0.28648652  0.67544241  0.27437214    -0.74400
O450        O  0.27057997  0.65463782  0.37147372    -0.74200
O451        O  0.36466879  0.64081451  0.32901426    -0.73800
O452        O  0.25374315  0.66997167  0.30731376    -0.74400
O453        O  0.35092382  0.65842329  0.28769452    -0.74000
O454        O  0.31389085  0.63845226  0.38149244    -0.74600
O455        O  0.34840427  0.73385489  0.37333889    -0.74000
O456        O  0.25244994  0.71767136  0.35108069    -0.74800
O457        O  0.36543818  0.69088382  0.38316053    -0.74200
O458        O  0.28447259  0.75072601  0.35874982    -0.74600
O459        O  0.33060860  0.75407404  0.31061754    -0.74500
O460        O  0.33241448  0.72172021  0.27674171    -0.74300
C461        C  0.26113817  0.67071403  0.28159746     0.77500
C462        C  0.28693828  0.63803342  0.38482135     0.78000
C463        C  0.36633086  0.64178386  0.30196293     0.76900
C464        C  0.36513323  0.71783572  0.38688048     0.77300
C465        C  0.25894621  0.74298884  0.35679740     0.78400
C466        C  0.33397438  0.74719063  0.28486326     0.77500
C467        C  0.14843278  0.51223682  0.47762729     0.03500
C468        C  0.11864530  0.51293473  0.47800679    -0.12700
C469        C  0.10347629  0.49423998  0.49553774     0.01000
C470        C  0.11852994  0.47537325  0.51319676    -0.11200
C471        C  0.14833231  0.47539361  0.51347896     0.03400
C472        C  0.16278460  0.49351521  0.49535628    -0.10600
H473        H  0.10737191  0.52769597  0.46459713     0.09000
H474        H  0.10714500  0.46121397  0.52699984     0.06600
H475        H  0.18571439  0.49332710  0.49531464     0.06400
C476        C  0.50024462  0.52283100  0.84069066     0.03500
C477        C  0.48204160  0.50459155  0.82626843    -0.12700
C478        C  0.46311212  0.48700246  0.84049757     0.01000
C479        C  0.46263909  0.48759806  0.87033443    -0.11200
C480        C  0.48044863  0.50611718  0.88574800     0.03400
C481        C  0.49906789  0.52381916  0.87048649    -0.10600
H482        H  0.48277174  0.50394080  0.80342129     0.09000
H483        H  0.44823010  0.47386571  0.88146035     0.06600
H484        H  0.51312482  0.53786380  0.88174374     0.06400
Zn485      Zn  0.33175927  0.33164878  0.65732979     1.49700
Zn486      Zn  0.26785031  0.30974136  0.66873933     1.49400
Zn487      Zn  0.31693767  0.26606962  0.67130899     1.49100
Zn488      Zn  0.31188738  0.31147680  0.71935161     1.49500
O489        O  0.30749858  0.30537599  0.67898244    -1.83800
O490        O  0.30601500  0.35596878  0.63047763    -0.74400
O491        O  0.24840659  0.27367255  0.65773470    -0.74200
O492        O  0.34412836  0.26332087  0.64011199    -0.73800
O493        O  0.26372633  0.33670494  0.63755980    -0.74400
O494        O  0.35958709  0.30721437  0.63297851    -0.74000
O495        O  0.28304552  0.24259026  0.66357245    -0.74600
O496        O  0.32213199  0.27525906  0.73931241    -0.74000
O497        O  0.24508360  0.32279060  0.70196819    -0.74800
O498        O  0.33243700  0.24539481  0.70451016    -0.74200
O499        O  0.27577244  0.32554886  0.73740578    -0.74600
O500        O  0.34198808  0.33908202  0.72699669    -0.74500
O501        O  0.35467929  0.35712660  0.68555702    -0.74300
C502        C  0.27957965  0.35399110  0.62474371     0.77500
C503        C  0.25723700  0.24836848  0.65930990     0.78000
C504        C  0.36051469  0.28056183  0.62788094     0.76900
C505        C  0.32992760  0.25099298  0.73057273     0.77300
C506        C  0.25072827  0.32729627  0.72781560     0.78400
C507        C  0.35670768  0.35612524  0.71257684     0.77500
Zn508      Zn  0.65915472  0.66324288  0.66761090     1.49700
Zn509      Zn  0.67852742  0.72658183  0.68477774     1.49400
Zn510      Zn  0.67804385  0.67970457  0.73219126     1.49100
Zn511      Zn  0.72375049  0.67915017  0.68375185     1.49500
O512        O  0.68419086  0.68656379  0.69194144    -1.83800
O513        O  0.63622936  0.69031535  0.64091557    -0.74400
O514        O  0.66343397  0.74778829  0.71791891    -0.74200
O515        O  0.64517480  0.65417307  0.73712170    -0.73800
O516        O  0.65381362  0.73250570  0.65212491    -0.74400
O517        O  0.63158037  0.64069090  0.69401211    -0.74000
O518        O  0.66878023  0.71633819  0.75229973    -0.74600
O519        O  0.74512136  0.66899537  0.71819748    -0.74000
O520        O  0.71472034  0.74662045  0.67806932    -0.74800
O521        O  0.71335301  0.66422907  0.75226310    -0.74200
O522        O  0.74582809  0.71235872  0.67037438    -0.74600
O523        O  0.72763381  0.64812849  0.65676251    -0.74500
O524        O  0.68441845  0.63574702  0.64302508    -0.74300
C525        C  0.63782886  0.71711687  0.63716638     0.77500
C526        C  0.66375050  0.74138461  0.74389171     0.78000
C527        C  0.62877809  0.64029326  0.72100570     0.76900
C528        C  0.73888930  0.66383489  0.74365461     0.77300
C529        C  0.73974434  0.73836530  0.67300252     0.78400
C530        C  0.71140622  0.63277336  0.64205186     0.77500
C531        C  0.36301686  0.00050261  0.47327944     0.03500
C532        C  0.39262238  0.99830131  0.47583058    -0.12700
C533        C  0.40740780  0.01625977  0.49446443     0.01000
C534        C  0.39209658  0.03554606  0.51143152    -0.11200
C535        C  0.36250085  0.03764984  0.50899077     0.03400
C536        C  0.34838636  0.02056935  0.48948597    -0.10600
H537        H  0.40405535  0.98269337  0.46344816     0.09000
H538        H  0.40309669  0.04864783  0.52660791     0.06600
H539        H  0.32552135  0.02171958  0.48813861     0.06400
C540        C  0.67417441  0.98526528  0.52040805     0.03500
C541        C  0.64432222  0.98600672  0.52102359    -0.12700
C542        C  0.62906993  0.00469138  0.50350389     0.01000
C543        C  0.64395140  0.02287176  0.48536967    -0.11200
C544        C  0.67377915  0.02266188  0.48472156     0.03400
C545        C  0.68847181  0.00378749  0.50230960    -0.10600
H546        H  0.63292991  0.97180958  0.53477764     0.09000
H547        H  0.63227716  0.03729285  0.47193022     0.06600
H548        H  0.71134997  0.00340619  0.50179812     0.06400
C549        C  0.01493131  0.34271974  0.51834837     0.03500
C550        C  0.99762188  0.32655409  0.50070522    -0.12700
C551        C  0.97836071  0.33934505  0.48210146     0.01000
C552        C  0.97647034  0.36913569  0.48153008    -0.11200
C553        C  0.99369624  0.38575086  0.49915179     0.03400
C554        C  0.01287511  0.37238168  0.51765344    -0.10600
H555        H  0.99894250  0.30371116  0.50193795     0.09000
H556        H  0.96206780  0.37946178  0.46702185     0.06600
H557        H  0.02635729  0.38497606  0.53115165     0.06400
C558        C  0.03146137  0.98065062  0.15771757     0.03500
C559        C  0.01472806  0.00037679  0.17218597    -0.12700
C560        C  0.99513598  0.01749378  0.15795757     0.01000
C561        C  0.99344155  0.01557838  0.12833537    -0.11200
C562        C  0.01055941  0.99628081  0.11337060     0.03400
C563        C  0.02927102  0.97841517  0.12819626    -0.10600
H564        H  0.01692284  0.00212666  0.19490070     0.09000
H565        H  0.97854904  0.02871161  0.11688172     0.06600
H566        H  0.04228622  0.96325517  0.11685475     0.06400
C567        C  0.01781639  0.65040366  0.48266048     0.03500
C568        C  0.01601714  0.62080261  0.48143499    -0.12700
C569        C  0.99596422  0.60651703  0.49801831     0.01000
C570        C  0.97793182  0.62215737  0.51605565    -0.11200
C571        C  0.97964821  0.65192127  0.51731936     0.03400
C572        C  0.99974519  0.66558384  0.50052720    -0.10600
H573        H  0.03005001  0.60898386  0.46762636     0.09000
H574        H  0.96260401  0.61118604  0.52892157     0.06600
H575        H  0.00188704  0.68835825  0.50169912     0.06400
Zn576      Zn  0.15163312  0.80935114  0.32418414     1.49700
Zn577      Zn  0.21224287  0.79948082  0.31107448     1.49400
Zn578      Zn  0.19732734  0.85957143  0.32122623     1.49100
Zn579      Zn  0.20102494  0.81329710  0.37236041     1.49500
O580        O  0.18904410  0.82184101  0.33398358    -1.83800
O581        O  0.15264231  0.77609210  0.29609496    -0.74400
O582        O  0.24675306  0.81982419  0.29978989    -0.74200
O583        O  0.16145579  0.87765544  0.30712810    -0.73800
O584        O  0.19297966  0.78769201  0.27591375    -0.74400
O585        O  0.13045644  0.84228578  0.30582586    -0.74000
O586        O  0.22459561  0.85908598  0.28737687    -0.74600
O587        O  0.21764286  0.84956681  0.38923972    -0.74000
O588        O  0.22381027  0.76475162  0.33089738    -0.74800
O589        O  0.21627390  0.88041133  0.35352760    -0.74200
O590        O  0.23349962  0.78411852  0.37234837    -0.74600
O591        O  0.16721968  0.79478434  0.39293116    -0.74500
O592        O  0.13390760  0.79423028  0.35944482    -0.74300
C593        C  0.17072759  0.77300370  0.27642211     0.77500
C594        C  0.24502017  0.84168897  0.28452685     0.78000
C595        C  0.13737680  0.86777294  0.30018915     0.76900
C596        C  0.22368363  0.87369881  0.37862321     0.77300
C597        C  0.23704345  0.76457525  0.35411551     0.78400
C598        C  0.14244775  0.78803732  0.38427095     0.77500
Zn599      Zn  0.83770614  0.16835089  0.32247141     1.49700
Zn600      Zn  0.77333005  0.18415631  0.30605842     1.49400
Zn601      Zn  0.81932746  0.23172828  0.30595901     1.49100
Zn602      Zn  0.81941495  0.18603402  0.25781331     1.49500
O603        O  0.81287506  0.19199655  0.29819560    -1.83800
O604        O  0.81306630  0.14153026  0.34720064    -0.74400
O605        O  0.75113315  0.21841796  0.31763772    -0.74200
O606        O  0.84422731  0.23686147  0.33879473    -0.73800
O607        O  0.76939947  0.15370852  0.33429744    -0.74400
O608        O  0.86082612  0.19411718  0.34961811    -0.74000
O609        O  0.78337416  0.25188020  0.31327494    -0.74600
O610        O  0.82913003  0.22268024  0.23798055    -0.74000
O611        O  0.75252599  0.17352681  0.27127547    -0.74800
O612        O  0.83371773  0.25362427  0.27296067    -0.74200
O613        O  0.78452096  0.17156693  0.23704179    -0.74600
O614        O  0.85162271  0.15958608  0.25313725    -0.74500
O615        O  0.86470087  0.14548399  0.29619589    -0.74300
C616        C  0.78619737  0.13870087  0.34898625     0.77500
C617        C  0.75797947  0.24427863  0.31657814     0.78000
C618        C  0.85969064  0.22086618  0.35383632     0.76900
C619        C  0.83376542  0.24764229  0.24683694     0.77300
C620        C  0.75903252  0.17011071  0.24552600     0.78400
C621        C  0.86758167  0.14510369  0.26925641     0.77500
C622        C  0.00107112  0.96234841  0.85028291     0.03500
C623        C  0.99804928  0.96511935  0.87973007    -0.12700
C624        C  0.01478052  0.98436464  0.89486162     0.01000
C625        C  0.03436489  0.00123587  0.88038298    -0.11200
C626        C  0.03770174  0.99834385  0.85102166     0.03400
C627        C  0.02124605  0.97875491  0.83634535    -0.10600
H628        H  0.98267086  0.95244525  0.89085364     0.09000
H629        H  0.04688613  0.01653379  0.89186478     0.06600
H630        H  0.02296976  0.97765288  0.81354494     0.06400
Zn631      Zn  0.82580378  0.81444004  0.73817369     1.49700
Zn632      Zn  0.84202435  0.83062650  0.67296156     1.49400
Zn633      Zn  0.82310925  0.76794039  0.69184843     1.49100
Zn634      Zn  0.77810101  0.81814193  0.69290667     1.49500
O635        O  0.81765384  0.80809530  0.69846015    -1.83800
O636        O  0.85269650  0.84542365  0.74176433    -0.74400
O637        O  0.86703852  0.80327844  0.64862499    -0.74200
O638        O  0.83188904  0.74673298  0.72740619    -0.73800
O639        O  0.86756207  0.85590978  0.69827508    -0.74400
O640        O  0.83991030  0.78033963  0.75905459    -0.74000
O641        O  0.85410410  0.76123641  0.66501830    -0.74600
O642        O  0.75616797  0.78459032  0.67995595    -0.74000
O643        O  0.81673735  0.85640530  0.64703568    -0.74800
O644        O  0.78784990  0.74979038  0.67726834    -0.74200
O645        O  0.77401469  0.84823966  0.66473116    -0.74600
O646        O  0.75789650  0.83043511  0.72828736    -0.74500
O647        O  0.79114881  0.82332412  0.76043164    -0.74300
C648        C  0.86815948  0.85953983  0.72511741     0.77500
C649        C  0.86939572  0.77625146  0.64903388     0.78000
C650        C  0.83779768  0.75445723  0.75237867     0.76900
C651        C  0.76257031  0.75884809  0.67542102     0.77300
C652        C  0.79003036  0.86124699  0.64772813     0.78400
C653        C  0.76576094  0.82876260  0.75382737     0.77500
Zn654      Zn  0.14314481  0.18547925  0.69531839     1.49700
Zn655      Zn  0.20314322  0.20032582  0.70421167     1.49400
Zn656      Zn  0.19602177  0.13952228  0.69240095     1.49100
Zn657      Zn  0.18930385  0.18915966  0.64494341     1.49500
O658        O  0.18107282  0.17654341  0.68264185    -1.83800
O659        O  0.14344041  0.21378517  0.72844128    -0.74400
O660        O  0.21353417  0.18271092  0.74005745    -0.74200
O661        O  0.16301776  0.11742212  0.70887145    -0.73800
O662        O  0.18233875  0.23492735  0.71419116    -0.74400
O663        O  0.12738993  0.14892954  0.71085455    -0.74000
O664        O  0.22748596  0.14152547  0.72303035    -0.74600
O665        O  0.20945158  0.15710712  0.62434055    -0.74000
O666        O  0.23822365  0.21095978  0.68429602    -0.74800
O667        O  0.21448437  0.12330980  0.65693173    -0.74200
O668        O  0.21620925  0.22293370  0.64501998    -0.74600
O669        O  0.15333187  0.20355543  0.62724509    -0.74500
O670        O  0.12187647  0.20433363  0.66247151    -0.74300
C671        C  0.16137905  0.23356468  0.73075533     0.77500
C672        C  0.22926376  0.16103921  0.74154100     0.78000
C673        C  0.13782245  0.12444229  0.71613667     0.76900
C674        C  0.21920472  0.13307578  0.63218476     0.77300
C675        C  0.23670969  0.22575116  0.66211818     0.78400
C676        C  0.12912944  0.21049812  0.63715427     0.77500
C677        C  0.12124633  0.02905374  0.75570896    -0.17500
C678        C  0.10843021  0.01170788  0.77583464    -0.19700
C679        C  0.08919945  0.02310127  0.79544357     0.21000
C680        C  0.08277267  0.05225058  0.79475926    -0.02600
C681        C  0.09523884  0.06962414  0.77406606    -0.05700
C682        C  0.11476762  0.05803161  0.75459444     0.21300
C683        C  0.08822999  0.09861037  0.77296294     0.19400
C684        C  0.06914045  0.11005148  0.79267051    -0.17100
C685        C  0.05700519  0.09291361  0.81332533    -0.19400
C686        C  0.06359469  0.06399533  0.81450352     0.20900
C687        C  0.05065183  0.04647525  0.83448505    -0.32400
C688        C  0.05606144  0.01727931  0.83447822     0.01600
C689        C  0.07566168  0.00577515  0.81520042    -0.23700
C690        C  0.12783437  0.07571874  0.73473758    -0.28300
C691        C  0.12117232  0.10474223  0.73374774     0.07300
C692        C  0.10088558  0.11582285  0.75259200    -0.27000
H693        H  0.13615837  0.01977842  0.74094587     0.12000
H694        H  0.11356098  0.98935322  0.77605549     0.13100
H695        H  0.06366139  0.13232052  0.79217725     0.12200
H696        H  0.04227109  0.10224078  0.82823608     0.11500
H697        H  0.03511443  0.05522847  0.84894789     0.16800
H698        H  0.07959451  0.98316626  0.81504028     0.12700
H699        H  0.14354137  0.06703403  0.72043007     0.15600
H700        H  0.09594409  0.13823197  0.75237646     0.15400
C701        C  0.88551616  0.92292255  0.80453613    -0.17500
C702        C  0.90427476  0.93509958  0.82374301    -0.19700
C703        C  0.93351767  0.93321438  0.81926051     0.21000
C704        C  0.94397182  0.91905051  0.79507820    -0.02600
C705        C  0.92502502  0.90698127  0.77553461    -0.05700
C706        C  0.89570566  0.90877465  0.78048244     0.21300
C707        C  0.93541556  0.89262576  0.75139604     0.19400
C708        C  0.96468774  0.89075140  0.74697980    -0.17100
C709        C  0.98348101  0.90279796  0.76632746    -0.19400
C710        C  0.97332604  0.91694524  0.79042158     0.20900
C711        C  0.99197365  0.92954733  0.80962021    -0.32400
C712        C  0.98167507  0.94468610  0.83318335     0.01600
C713        C  0.95242617  0.94584410  0.83817872    -0.23700
C714        C  0.87711504  0.89532227  0.76196132    -0.28300
C715        C  0.88732040  0.87985623  0.73864956     0.07300
C716        C  0.91640180  0.87934510  0.73286021    -0.27000
H717        H  0.86302136  0.92436951  0.80861681     0.12000
H718        H  0.89590578  0.94594504  0.84214302     0.13100
H719        H  0.97306739  0.87974026  0.72868445     0.12200
H720        H  0.00598275  0.90106552  0.76243009     0.11500
H721        H  0.01453271  0.92830056  0.80580360     0.16800
H722        H  0.94429260  0.95776206  0.85602954     0.12700
H723        H  0.85464898  0.89550672  0.76653613     0.15600
H724        H  0.92431124  0.86693489  0.71524038     0.15400
C725        C  0.12780840  0.71632706  0.45933176    -0.17500
C726        C  0.11103104  0.69527970  0.47150349    -0.19700
C727        C  0.08334264  0.69069975  0.46193201     0.21000
C728        C  0.07248263  0.70755727  0.43985133    -0.02600
C729        C  0.08933324  0.72892560  0.42773624    -0.05700
C730        C  0.11718720  0.73331852  0.43742925     0.21300
C731        C  0.07830328  0.74578291  0.40580980     0.19400
C732        C  0.05063811  0.74128813  0.39621250    -0.17100
C733        C  0.03393117  0.72028319  0.40827753    -0.19400
C734        C  0.04461838  0.70335693  0.43010982     0.20900
C735        C  0.02760891  0.68292864  0.44294707    -0.32400
C736        C  0.03800485  0.66660226  0.46539446     0.01600
C737        C  0.06600418  0.67021877  0.47455595    -0.23700
C738        C  0.13409017  0.75409022  0.42454924    -0.28300
C739        C  0.12347616  0.77037199  0.40197004     0.07300
C740        C  0.09528713  0.76640470  0.39330852    -0.27000
H741        H  0.14913051  0.71929001  0.46704206     0.12000
H742        H  0.11971176  0.68261508  0.48848038     0.13100
H743        H  0.04191337  0.75401500  0.37930625     0.12200
H744        H  0.01258288  0.71735961  0.40060546     0.11500
H745        H  0.00580621  0.68052619  0.43636939     0.16800
H746        H  0.07373954  0.65809012  0.49236964     0.12700
H747        H  0.15582838  0.75664004  0.43121164     0.15600
H748        H  0.08677428  0.77871223  0.37597719     0.15400
C749        C  0.93874040  0.67164797  0.61185766    -0.17500
C750        C  0.92493421  0.68999815  0.63062323    -0.19700
C751        C  0.91516463  0.71654297  0.62151538     0.21000
C752        C  0.91953546  0.72485709  0.59333932    -0.02600
C753        C  0.93326000  0.70620108  0.57431909    -0.05700
C754        C  0.94290897  0.67945564  0.58361531     0.21300
C755        C  0.93722238  0.71428352  0.54600944     0.19400
C756        C  0.92764914  0.74093473  0.53698507    -0.17100
C757        C  0.91410718  0.75943201  0.55583615    -0.19400
C758        C  0.90979226  0.75159714  0.58404832     0.20900
C759        C  0.89509939  0.76956308  0.60285602    -0.32400
C760        C  0.88957654  0.76076739  0.63060403     0.01600
C761        C  0.90031598  0.73452018  0.63988352    -0.23700
C762        C  0.95693940  0.66120642  0.56465656    -0.28300
C763        C  0.96153568  0.66936796  0.53650048     0.07300
C764        C  0.95101373  0.69575545  0.52728981    -0.27000
H765        H  0.94605713  0.65128330  0.61941923     0.12000
H766        H  0.92171058  0.68333191  0.65224366     0.13100
H767        H  0.93063671  0.74748964  0.51530043     0.12200
H768        H  0.90676738  0.77978213  0.54826280     0.11500
H769        H  0.88663377  0.78957026  0.59549325     0.16800
H770        H  0.89624831  0.72763476  0.66131389     0.12700
H771        H  0.96518272  0.64113253  0.57207672     0.15600
H772        H  0.95400982  0.70211130  0.50553405     0.15400
C773        C  0.92899680  0.12767439  0.18713870    -0.17500
C774        C  0.94610829  0.10961353  0.17101094    -0.19700
C775        C  0.95299427  0.08250539  0.18088108     0.21000
C776        C  0.94286690  0.07370714  0.20749475    -0.02600
C777        C  0.92585911  0.09205585  0.22393185    -0.05700
C778        C  0.91865453  0.11900049  0.21349591     0.21300
C779        C  0.91563934  0.08323894  0.25053401     0.19400
C780        C  0.92271915  0.05619874  0.26046128    -0.17100
C781        C  0.93938165  0.03793336  0.24406950    -0.19400
C782        C  0.94942776  0.04646180  0.21755244     0.20900
C783        C  0.96584927  0.02816144  0.20091573    -0.32400
C784        C  0.97646520  0.03682746  0.17451843     0.01600
C785        C  0.96982237  0.06407800  0.16463439    -0.23700
C786        C  0.90060619  0.13652023  0.22923646    -0.28300
C787        C  0.88965093  0.12764047  0.25539250     0.07300
C788        C  0.89785077  0.10126849  0.26630292    -0.27000
H789        H  0.92365486  0.14836523  0.17888462     0.12000
H790        H  0.95373177  0.11675447  0.15068915     0.13100
H791        H  0.91507159  0.04903299  0.28075737     0.12200
H792        H  0.94434506  0.01706717  0.25211125     0.11500
H793        H  0.97024003  0.00701082  0.20853837     0.16800
H794        H  0.97810370  0.07112764  0.14453705     0.12700
H795        H  0.89453901  0.15696328  0.22080202     0.15600
H796        H  0.88931678  0.09425843  0.28631182     0.15400
C797        C  0.06149620  0.87581315  0.22905891    -0.17500
C798        C  0.04865773  0.89072599  0.20696343    -0.19700
C799        C  0.05658987  0.91862156  0.20102632     0.21000
C800        C  0.07763251  0.93163859  0.21763199    -0.02600
C801        C  0.09052011  0.91661225  0.23997730    -0.05700
C802        C  0.08250416  0.88851562  0.24563254     0.21300
C803        C  0.11162927  0.92961714  0.25643790     0.19400
C804        C  0.11938810  0.95760477  0.25072674    -0.17100
C805        C  0.10642757  0.97258199  0.22880476    -0.19400
C806        C  0.08558193  0.95979072  0.21213691     0.20900
C807        C  0.07187765  0.97496451  0.19070457    -0.32400
C808        C  0.05035720  0.96241309  0.17465260     0.01600
C809        C  0.04320877  0.93406453  0.17945202    -0.23700
C810        C  0.09631531  0.87330365  0.26707868    -0.28300
C811        C  0.11842521  0.88565013  0.28262553     0.07300
C812        C  0.12530119  0.91413892  0.27769166    -0.27000
H813        H  0.05510721  0.85424463  0.23306891     0.12000
H814        H  0.03245356  0.88045113  0.19455504     0.13100
H815        H  0.13558538  0.96788145  0.26314400     0.12200
H816        H  0.11268882  0.99421441  0.22490943     0.11500
H817        H  0.07694603  0.99702219  0.18732349     0.16800
H818        H  0.02610625  0.92465379  0.16754032     0.12700
H819        H  0.09092453  0.85135064  0.27051876     0.15600
H820        H  0.14223274  0.92393928  0.28952392     0.15400
C821        C  0.03875741  0.30290250  0.61169060    -0.17500
C822        C  0.05319475  0.28266127  0.62784275    -0.19700
C823        C  0.07412535  0.26540373  0.61553541     0.21000
C824        C  0.08082163  0.26891428  0.58672077    -0.02600
C825        C  0.06625589  0.28933992  0.57041079    -0.05700
C826        C  0.04495242  0.30628531  0.58290706     0.21300
C827        C  0.07259689  0.29234896  0.54145584     0.19400
C828        C  0.09389891  0.27553802  0.52925726    -0.17100
C829        C  0.10853006  0.25558285  0.54547029    -0.19400
C830        C  0.10198350  0.25193694  0.57412743     0.20900
C831        C  0.11652254  0.23185795  0.59043694    -0.32400
C832        C  0.11032441  0.22835900  0.61930784     0.01600
C833        C  0.08876732  0.24503187  0.63159816    -0.23700
C834        C  0.02958056  0.32553466  0.56616447    -0.28300
C835        C  0.03500509  0.32763820  0.53707389     0.07300
C836        C  0.05686110  0.31138331  0.52499246    -0.27000
H837        H  0.02250155  0.31570909  0.62166080     0.12000
H838        H  0.04788938  0.28042491  0.64997005     0.13100
H839        H  0.09907930  0.27764387  0.50708066     0.12200
H840        H  0.12484202  0.24283438  0.53552344     0.11500
H841        H  0.13318993  0.21936659  0.58073002     0.16800
H842        H  0.08413039  0.24295754  0.65390207     0.12700
H843        H  0.01239525  0.33771420  0.57536048     0.15600
H844        H  0.06078491  0.31278982  0.50248099     0.15400
C845        C  0.96600587  0.25351304  0.42294908    -0.17500
C846        C  0.94914752  0.23602496  0.40610347    -0.19700
C847        C  0.92081135  0.24314419  0.40079451     0.21000
C848        C  0.90931343  0.26800863  0.41301227    -0.02600
C849        C  0.92629884  0.28560086  0.43009104    -0.05700
C850        C  0.95482484  0.27840758  0.43488767     0.21300
C851        C  0.91482603  0.31058229  0.44200475     0.19400
C852        C  0.88642742  0.31759873  0.43696479    -0.17100
C853        C  0.86968440  0.30033190  0.41988051    -0.19400
C854        C  0.88100886  0.27566550  0.40766671     0.20900
C855        C  0.86474134  0.25903684  0.38948163    -0.32400
C856        C  0.87621375  0.23475225  0.37643235     0.01600
C857        C  0.90404914  0.22643097  0.38277473    -0.23700
C858        C  0.97171480  0.29629661  0.45138904    -0.28300
C859        C  0.96046432  0.32122988  0.46354217     0.07300
C860        C  0.93192395  0.32815172  0.45867239    -0.27000
H861        H  0.98787941  0.24764244  0.42650159     0.12000
H862        H  0.95839184  0.21710608  0.39692892     0.13100
H863        H  0.87723634  0.33662665  0.44597727     0.12200
H864        H  0.84793739  0.30645166  0.41595859     0.11500
H865        H  0.84321528  0.26546972  0.38479278     0.16800
H866        H  0.91306137  0.20791707  0.37257687     0.12700
H867        H  0.99376560  0.29088487  0.45456156     0.15600
H868        H  0.92287751  0.34699458  0.46820734     0.15400
C869        C  0.71049464  0.92645437  0.63186714    -0.17500
C870        C  0.69344232  0.94266205  0.61396089    -0.19700
C871        C  0.70056370  0.94579536  0.58540133     0.21000
C872        C  0.72526429  0.93253395  0.57483691    -0.02600
C873        C  0.74260821  0.91623149  0.59298916    -0.05700
C874        C  0.73502995  0.91314509  0.62155696     0.21300
C875        C  0.76730880  0.90281865  0.58252218     0.19400
C876        C  0.77434315  0.90596062  0.55390463    -0.17100
C877        C  0.75717627  0.92214898  0.53591966    -0.19400
C878        C  0.73260638  0.93552853  0.54618053     0.20900
C879        C  0.71538031  0.95201319  0.52837753    -0.32400
C880        C  0.69091266  0.96576641  0.53883440     0.01600
C881        C  0.68356689  0.96220984  0.56736468    -0.23700
C882        C  0.75172876  0.89630337  0.63925915    -0.28300
C883        C  0.77602943  0.88224512  0.62903523     0.07300
C884        C  0.78406384  0.88603248  0.60070380    -0.27000
H885        H  0.70440633  0.92422021  0.65379290     0.12000
H886        H  0.67461998  0.95270735  0.62246227     0.13100
H887        H  0.79309103  0.89579765  0.54537751     0.12200
H888        H  0.76313886  0.92421678  0.51394888     0.11500
H889        H  0.72109710  0.95424584  0.50634798     0.16800
H890        H  0.66505343  0.97291802  0.57575436     0.12700
H891        H  0.74539225  0.89357163  0.66107920     0.15600
H892        H  0.80249887  0.87498937  0.59256683     0.15400
C893        C  0.68979046  0.06150742  0.38909480    -0.17500
C894        C  0.70648189  0.07629979  0.36985469    -0.19700
C895        C  0.73183983  0.08883938  0.37855925     0.21000
C896        C  0.74066685  0.08628335  0.40685021    -0.02600
C897        C  0.72367459  0.07145982  0.42635769    -0.05700
C898        C  0.69810597  0.05904605  0.41740958     0.21300
C899        C  0.73221423  0.06913044  0.45476205     0.19400
C900        C  0.75764829  0.08165702  0.46340635    -0.17100
C901        C  0.77447840  0.09636829  0.44407867    -0.19400
C902        C  0.76620528  0.09888317  0.41571932     0.20900
C903        C  0.78246117  0.11445979  0.39627774    -0.32400
C904        C  0.77305652  0.11798149  0.36832151     0.01600
C905        C  0.74803839  0.10460202  0.35960331    -0.23700
C906        C  0.68146182  0.04407179  0.43677970    -0.28300
C907        C  0.69002761  0.04109784  0.46504910     0.07300
C908        C  0.71532219  0.05408575  0.47391391    -0.27000
H909        H  0.67029444  0.05206325  0.38182484     0.12000
H910        H  0.69943440  0.07810521  0.34816892     0.13100
H911        H  0.76454323  0.08007482  0.48515318     0.12200
H912        H  0.79389491  0.10594693  0.45137444     0.11500
H913        H  0.80147925  0.12505413  0.40323218     0.16800
H914        H  0.74068080  0.10724889  0.33808497     0.12700
H915        H  0.66228778  0.03391558  0.42960595     0.15600
H916        H  0.72199179  0.05227100  0.49572201     0.15400
C917        C  0.28972876  0.11145963  0.52349901    -0.17500
C918        C  0.26842731  0.12359108  0.54021242    -0.19700
C919        C  0.26400871  0.11427838  0.56797701     0.21000
C920        C  0.28143090  0.09268947  0.57907791    -0.02600
C921        C  0.30326195  0.08076991  0.56236816    -0.05700
C922        C  0.30721565  0.09000321  0.53433843     0.21300
C923        C  0.32080896  0.05929849  0.57356283     0.19400
C924        C  0.31636296  0.04996185  0.60129538    -0.17100
C925        C  0.29467189  0.06166867  0.61777756    -0.19400
C926        C  0.27707650  0.08300581  0.60687209     0.20900
C927        C  0.25556988  0.09515584  0.62347257    -0.32400
C928        C  0.23856384  0.11729104  0.61291196     0.01600
C929        C  0.24278907  0.12647667  0.58495267    -0.23700
C930        C  0.32800074  0.07701779  0.51742035    -0.28300
C931        C  0.34518178  0.05527399  0.52831757     0.07300
C932        C  0.34187260  0.04692111  0.55654670    -0.27000
H933        H  0.29247126  0.11881299  0.50203734     0.12000
H934        H  0.25530492  0.14018864  0.53135844     0.13100
H935        H  0.32954394  0.03342885  0.61018716     0.12200
H936        H  0.29168604  0.05404573  0.63910893     0.11500
H937        H  0.25284772  0.08808180  0.64503914     0.16800
H938        H  0.22999581  0.14358533  0.57657418     0.12700
H939        H  0.33022303  0.08307317  0.49547478     0.15600
H940        H  0.35463898  0.02967204  0.56470760     0.15400
C941        C  0.26991248  0.96693782  0.38807875    -0.17500
C942        C  0.29077299  0.98410474  0.40000942    -0.19700
C943        C  0.30841543  0.97370570  0.42147944     0.21000
C944        C  0.30500140  0.94568866  0.43099818    -0.02600
C945        C  0.28358719  0.92851560  0.41928917    -0.05700
C946        C  0.26609146  0.93913962  0.39760217     0.21300
C947        C  0.27979460  0.90069927  0.42920203     0.19400
C948        C  0.29751297  0.89027068  0.45060203    -0.17100
C949        C  0.31880442  0.90720199  0.46208225    -0.19400
C950        C  0.32271734  0.93494327  0.45248439     0.20900
C951        C  0.34341542  0.95239585  0.46459468    -0.32400
C952        C  0.34618349  0.98062794  0.45595778     0.01600
C953        C  0.32883313  0.99104768  0.43417591    -0.23700
C954        C  0.24549938  0.92161774  0.38541985    -0.28300
C955        C  0.24193827  0.89358194  0.39472774     0.07300
C956        C  0.25883373  0.88356130  0.41710659    -0.27000
H957        H  0.25670894  0.97544191  0.37142430     0.12000
H958        H  0.29308297  0.00556113  0.39245319     0.13100
H959        H  0.29498253  0.86893428  0.45840284     0.12200
H960        H  0.33211634  0.89863408  0.47862335     0.11500
H961        H  0.35629033  0.94456970  0.48185124     0.16800
H962        H  0.33062505  0.01297629  0.42786325     0.12700
H963        H  0.23273023  0.92959975  0.36816776     0.15600
H964        H  0.25661573  0.86194737  0.42425111     0.15400
C965        C  0.56064833  0.63179586  0.79917342    -0.17500
C966        C  0.54386280  0.61522596  0.81691064    -0.19700
C967        C  0.54039406  0.58627257  0.81149118     0.21000
C968        C  0.55359830  0.57410006  0.78753710    -0.02600
C969        C  0.57028223  0.59092592  0.76938928    -0.05700
C970        C  0.57412425  0.61979519  0.77552696     0.21300
C971        C  0.58359452  0.57873052  0.74548295     0.19400
C972        C  0.57983536  0.54984641  0.73989348    -0.17100
C973        C  0.56346544  0.53317240  0.75793002    -0.19400
C974        C  0.55039009  0.54506771  0.78185284     0.20900
C975        C  0.53404920  0.52843910  0.80006125    -0.32400
C976        C  0.52023183  0.54039022  0.82374208     0.01600
C977        C  0.52381688  0.56936522  0.82943590    -0.23700
C978        C  0.59209714  0.63594991  0.75846816    -0.28300
C979        C  0.60615230  0.62385233  0.73507367     0.07300
C980        C  0.60117110  0.59538464  0.72821609    -0.27000
H981        H  0.56331028  0.65399018  0.80411789     0.12000
H982        H  0.53381097  0.62502575  0.83504985     0.13100
H983        H  0.58985907  0.54004320  0.72173893     0.12200
H984        H  0.56109760  0.51089892  0.75319581     0.11500
H985        H  0.53183830  0.50608026  0.79560719     0.16800
H986        H  0.51308280  0.57889467  0.84733540     0.12700
H987        H  0.59585822  0.65789408  0.76386874     0.15600
H988        H  0.61220495  0.58584212  0.71049810     0.15400
C989        C  0.41261797  0.37306312  0.79863285    -0.17500
C990        C  0.42587431  0.39152204  0.81755876    -0.19700
C991        C  0.42830361  0.42037420  0.81123622     0.21000
C992        C  0.41738520  0.43057567  0.78537659    -0.02600
C993        C  0.40429646  0.41185519  0.76607489    -0.05700
C994        C  0.40170502  0.38304852  0.77291332     0.21300
C995        C  0.39347849  0.42203827  0.74014445     0.19400
C996        C  0.39596805  0.45087143  0.73381369    -0.17100
C997        C  0.40878359  0.46941335  0.75296654    -0.19400
C998        C  0.41951695  0.45947840  0.77878020     0.20900
C999        C  0.43279082  0.47789102  0.79783704    -0.32400
C1000       C  0.44482278  0.46785842  0.82322437     0.01600
C1001       C  0.44193518  0.43905968  0.83000016    -0.23700
C1002       C  0.38755045  0.36487120  0.75430460    -0.28300
C1003       C  0.37590587  0.37490705  0.72877315     0.07300
C1004       C  0.37962048  0.40341657  0.72146595    -0.27000
H1005       H  0.41078724  0.35095062  0.80418654     0.12000
H1006       H  0.43415655  0.38322526  0.83720259     0.13100
H1007       H  0.38778185  0.45915424  0.71412359     0.12200
H1008       H  0.41036969  0.49157200  0.74753543     0.11500
H1009       H  0.43441585  0.50009037  0.79253484     0.16800
H1010       H  0.45127871  0.43098920  0.84926979     0.12700
H1011       H  0.38484296  0.34289645  0.76009748     0.15600
H1012       H  0.37042532  0.41139436  0.70208172     0.15400
C1013       C  0.20349086  0.36398337  0.55535403    -0.17500
C1014       C  0.18314535  0.38084308  0.54193999    -0.19700
C1015       C  0.18408003  0.41039427  0.54426233     0.21000
C1016       C  0.20608282  0.42304169  0.55996823    -0.02600
C1017       C  0.22678511  0.40602151  0.57331908    -0.05700
C1018       C  0.22521506  0.37637155  0.57125297     0.21300
C1019       C  0.24862404  0.41864819  0.58928559     0.19400
C1020       C  0.24975321  0.44821495  0.59129331    -0.17100
C1021       C  0.22933975  0.46507408  0.57796480    -0.19400
C1022       C  0.20738355  0.45268711  0.56239847     0.20900
C1023       C  0.18707304  0.46946100  0.54872050    -0.32400
C1024       C  0.16554342  0.45711348  0.53235265     0.01600
C1025       C  0.16382725  0.42752989  0.53066694    -0.23700
C1026       C  0.24459810  0.35959965  0.58618041    -0.28300
C1027       C  0.26550831  0.37194044  0.60334368     0.07300
C1028       C  0.26808894  0.40148583  0.60400229    -0.27000
H1029       H  0.20203676  0.34120734  0.55356766     0.12000
H1030       H  0.16657320  0.37074130  0.52986240     0.13100
H1031       H  0.26625818  0.45831743  0.60345198     0.12200
H1032       H  0.23068252  0.48784402  0.57990517     0.11500
H1033       H  0.18854614  0.49229442  0.54991517     0.16800
H1034       H  0.14760636  0.41795991  0.51768551     0.12700
H1035       H  0.24246360  0.33679227  0.58574299     0.15600
H1036       H  0.28380658  0.41107870  0.61756489     0.15400
C1037       C  0.18860952  0.60665168  0.46221756    -0.17500
C1038       C  0.21040773  0.62356539  0.45187938    -0.19700
C1039       C  0.23149904  0.61198500  0.43440307     0.21000
C1040       C  0.23077350  0.58304142  0.42734965    -0.02600
C1041       C  0.20865034  0.56596647  0.43769656    -0.05700
C1042       C  0.18746422  0.57784780  0.45523153     0.21300
C1043       C  0.20784447  0.53701248  0.43066212     0.19400
C1044       C  0.22892381  0.52546526  0.41311187    -0.17100
C1045       C  0.25060954  0.54247518  0.40253123    -0.19400
C1046       C  0.25178913  0.57131414  0.40950212     0.20900
C1047       C  0.27276193  0.58891460  0.39795662    -0.32400
C1048       C  0.27269645  0.61804833  0.40392444     0.01600
C1049       C  0.25250287  0.62916729  0.42279878    -0.23700
C1050       C  0.16604670  0.56056192  0.46619408    -0.28300
C1051       C  0.16582761  0.53148312  0.46022904     0.07300
C1052       C  0.18647568  0.51997875  0.44200008    -0.27000
H1053       H  0.17263778  0.61611782  0.47570949     0.12000
H1054       H  0.21063350  0.64581052  0.45737492     0.13100
H1055       H  0.22863056  0.50324177  0.40753966     0.12200
H1056       H  0.26640432  0.53308243  0.38878351     0.11500
H1057       H  0.28768816  0.58042760  0.38271752     0.16800
H1058       H  0.25200750  0.65173956  0.42687928     0.12700
H1059       H  0.15059771  0.56933169  0.48074239     0.15600
H1060       H  0.18658568  0.49744419  0.43774469     0.15400
C1061       C  0.54589670  0.75204451  0.60236885    -0.17500
C1062       C  0.53035846  0.77305224  0.58838339    -0.19700
C1063       C  0.54415322  0.79404448  0.57276336     0.21000
C1064       C  0.57388745  0.79388350  0.57113962    -0.02600
C1065       C  0.58955984  0.77256666  0.58509469    -0.05700
C1066       C  0.57551928  0.75157807  0.60091100     0.21300
C1067       C  0.61929676  0.77259755  0.58365567     0.19400
C1068       C  0.63310040  0.79352999  0.56797301    -0.17100
C1069       C  0.61757304  0.81448263  0.55396863    -0.19400
C1070       C  0.58797876  0.81495702  0.55550021     0.20900
C1071       C  0.57222391  0.83566334  0.54108574    -0.32400
C1072       C  0.54258719  0.83529422  0.54180521     0.01600
C1073       C  0.52873268  0.81477117  0.55816068    -0.23700
C1074       C  0.59139105  0.73125440  0.61588262    -0.28300
C1075       C  0.62104700  0.73209633  0.61554041     0.07300
C1076       C  0.63477091  0.75239632  0.59885279    -0.27000
H1077       H  0.53474022  0.73625464  0.61446968     0.12000
H1078       H  0.50750345  0.77287174  0.58978178     0.13100
H1079       H  0.65594758  0.79382180  0.56671278     0.12200
H1080       H  0.62873804  0.83036815  0.54197127     0.11500
H1081       H  0.58291234  0.85112240  0.52811384     0.16800
H1082       H  0.50582375  0.81437082  0.55859703     0.12700
H1083       H  0.58078610  0.71613169  0.62929258     0.15600
H1084       H  0.65766198  0.75332632  0.59892721     0.15400
C1085       C  0.46109616  0.74702935  0.41508576    -0.17500
C1086       C  0.47872559  0.76821882  0.42572110    -0.19700
C1087       C  0.46722200  0.79242445  0.43871398     0.21000
C1088       C  0.43768238  0.79534147  0.44109544    -0.02600
C1089       C  0.41990847  0.77377903  0.43067781    -0.05700
C1090       C  0.43161844  0.74954580  0.41738752     0.21300
C1091       C  0.39039850  0.77671668  0.43316443     0.19400
C1092       C  0.37886309  0.80095782  0.44603944    -0.17100
C1093       C  0.39644025  0.82224602  0.45643015    -0.19400
C1094       C  0.42589791  0.81965196  0.45414404     0.20900
C1095       C  0.44375918  0.84037118  0.46566041    -0.32400
C1096       C  0.47321825  0.83680727  0.46464210     0.01600
C1097       C  0.48474037  0.81325202  0.45030066    -0.23700
C1098       C  0.41362389  0.72900713  0.40552472    -0.28300
C1099       C  0.38416209  0.73267581  0.40671653     0.07300
C1100       C  0.37285770  0.75600937  0.42157687    -0.27000
H1101       H  0.47053658  0.72870698  0.40492044     0.12000
H1102       H  0.50142135  0.76563817  0.42383107     0.13100
H1103       H  0.35614510  0.80356424  0.44790832     0.12200
H1104       H  0.38701164  0.84063859  0.46636573     0.11500
H1105       H  0.43482170  0.85818506  0.47703479     0.16800
H1106       H  0.50750282  0.81040123  0.44960332     0.12700
H1107       H  0.42247370  0.71144829  0.39359917     0.15600
H1108       H  0.35011109  0.75906385  0.42234659     0.15400
C1109       C  0.45951901  0.26284642  0.59986646    -0.17500
C1110       C  0.47966704  0.24507063  0.58720070    -0.19700
C1111       C  0.47123965  0.22154829  0.57119926     0.21000
C1112       C  0.44222456  0.21586733  0.56789822    -0.02600
C1113       C  0.42188768  0.23388886  0.58056482    -0.05700
C1114       C  0.43055905  0.25748062  0.59671493     0.21300
C1115       C  0.39290473  0.22796783  0.57750262     0.19400
C1116       C  0.38444172  0.20445417  0.56153893    -0.17100
C1117       C  0.40456459  0.18672828  0.54886169    -0.19400
C1118       C  0.43350720  0.19214590  0.55200557     0.20900
C1119       C  0.45384338  0.17449941  0.53922065    -0.32400
C1120       C  0.48280017  0.18041184  0.54184244     0.01600
C1121       C  0.49129627  0.20381547  0.55816666    -0.23700
C1122       C  0.41016680  0.27460000  0.61025615    -0.28300
C1123       C  0.38134864  0.26797604  0.60823359     0.07300
C1124       C  0.37290843  0.24503151  0.59131074    -0.27000
H1125       H  0.46661023  0.28070982  0.61228749     0.12000
H1126       H  0.50188054  0.24971151  0.58995503     0.13100
H1127       H  0.36223200  0.19962924  0.55904709     0.12200
H1128       H  0.39747957  0.16869873  0.53667996     0.11500
H1129       H  0.44713076  0.15677287  0.52637432     0.16800
H1130       H  0.51359657  0.20842263  0.56036145     0.12700
H1131       H  0.41677654  0.29185130  0.62379025     0.15600
H1132       H  0.35069002  0.23971904  0.58994491     0.15400
C1133       C  0.60674174  0.27110469  0.44874839    -0.17500
C1134       C  0.59546491  0.25257132  0.46887348    -0.19700
C1135       C  0.58525292  0.22589016  0.46079277     0.21000
C1136       C  0.58692416  0.21764890  0.43223797    -0.02600
C1137       C  0.59810501  0.23640943  0.41192602    -0.05700
C1138       C  0.60794776  0.26340057  0.42009632     0.21300
C1139       C  0.59927412  0.22812990  0.38338618     0.19400
C1140       C  0.58981314  0.20123676  0.37533927    -0.17100
C1141       C  0.57874075  0.18275754  0.39537230    -0.19400
C1142       C  0.57693259  0.19083462  0.42381326     0.20900
C1143       C  0.56437106  0.17290897  0.44368704    -0.32400
C1144       C  0.56131254  0.18136781  0.47200203     0.01600
C1145       C  0.57263686  0.20765187  0.48051995    -0.23700
C1146       C  0.61918620  0.28186239  0.39953638    -0.28300
C1147       C  0.62071955  0.27340945  0.37102128     0.07300
C1148       C  0.61024631  0.24664555  0.36330223    -0.27000
H1149       H  0.61434570  0.29155810  0.45558719     0.12000
H1150       H  0.59445443  0.25924772  0.49075061     0.13100
H1151       H  0.59083469  0.19453074  0.35346785     0.12200
H1152       H  0.57126630  0.16224972  0.38854323     0.11500
H1153       H  0.55552707  0.15301617  0.43669615     0.16800
H1154       H  0.57087229  0.21428590  0.50237174     0.12700
H1155       H  0.62769241  0.30213389  0.40583493     0.15600
H1156       H  0.61134516  0.23979661  0.34145476     0.15400
C1157       C  0.79409922  0.57178615  0.62684536    -0.17500
C1158       C  0.81274166  0.55748093  0.60875256    -0.19700
C1159       C  0.80653571  0.55476989  0.57991108     0.21000
C1160       C  0.78115980  0.56663298  0.56930099    -0.02600
C1161       C  0.76216469  0.58085450  0.58763595    -0.05700
C1162       C  0.76881772  0.58350727  0.61647425     0.21300
C1163       C  0.73679850  0.59280892  0.57704242     0.19400
C1164       C  0.73072269  0.59026416  0.54815283    -0.17100
C1165       C  0.74955362  0.57622861  0.52999099    -0.19400
C1166       C  0.77479878  0.56439417  0.54037164     0.20900
C1167       C  0.79359734  0.55007019  0.52235279    -0.32400
C1168       C  0.81845200  0.53706672  0.53280741     0.01600
C1169       C  0.82500280  0.54004335  0.56162593    -0.23700
C1170       C  0.75057163  0.59865282  0.63430846    -0.28300
C1171       C  0.72574673  0.61152877  0.62388277     0.07300
C1172       C  0.71855675  0.60792351  0.59532067    -0.27000
H1173       H  0.79953855  0.57379559  0.64897958     0.12000
H1174       H  0.83205686  0.54858791  0.61732869     0.13100
H1175       H  0.71150037  0.59933109  0.53954324     0.12200
H1176       H  0.74434369  0.57460245  0.50777719     0.11500
H1177       H  0.78857449  0.54862375  0.50007329     0.16800
H1178       H  0.84390338  0.53011033  0.56999733     0.12700
H1179       H  0.75631767  0.60150064  0.65629648     0.15600
H1180       H  0.69982026  0.61826098  0.58703336     0.15400
C1181       C  0.80234320  0.38374350  0.39834494    -0.17500
C1182       C  0.81989856  0.40010363  0.41544474    -0.19700
C1183       C  0.81103208  0.42690461  0.42470223     0.21000
C1184       C  0.78424681  0.43738480  0.41641336    -0.02600
C1185       C  0.76633122  0.42070118  0.39942921    -0.05700
C1186       C  0.77554001  0.39382097  0.39042123     0.21300
C1187       C  0.73926341  0.43086045  0.39151969     0.19400
C1188       C  0.73064308  0.45787763  0.40045616    -0.17100
C1189       C  0.74853280  0.47454494  0.41707217    -0.19400
C1190       C  0.77528275  0.46440659  0.42525463     0.20900
C1191       C  0.79301310  0.48062800  0.44251258    -0.32400
C1192       C  0.81924051  0.46984664  0.45210499     0.01600
C1193       C  0.82823914  0.44308535  0.44259025    -0.23700
C1194       C  0.75792410  0.37747252  0.37343272    -0.28300
C1195       C  0.73103388  0.38735453  0.36511524     0.07300
C1196       C  0.72156814  0.41395527  0.37456423    -0.27000
H1197       H  0.80967941  0.36310608  0.39144009     0.12000
H1198       H  0.84037459  0.39173805  0.42151385     0.13100
H1199       H  0.71007653  0.46614771  0.39456568     0.12200
H1200       H  0.74132745  0.49529110  0.42375462     0.11500
H1201       H  0.78609007  0.50158101  0.44883300     0.16800
H1202       H  0.84816164  0.43436545  0.44985044     0.12700
H1203       H  0.76533344  0.35686405  0.36645034     0.15600
H1204       H  0.70102186  0.42178559  0.36802283     0.15400
C1205       C  0.39407357  0.54771208  0.26534637    -0.17500
C1206       C  0.40456171  0.53130248  0.24293242    -0.19700
C1207       C  0.41749626  0.54412469  0.21957342     0.21000
C1208       C  0.41999006  0.57376762  0.21881850    -0.02600
C1209       C  0.40962396  0.59032155  0.24158279    -0.05700
C1210       C  0.39641500  0.57727353  0.26492937     0.21300
C1211       C  0.41201972  0.61996007  0.24070743     0.19400
C1212       C  0.42502292  0.63279925  0.21741052    -0.17100
C1213       C  0.43545855  0.61641686  0.19501006    -0.19400
C1214       C  0.43301813  0.58688078  0.19542195     0.20900
C1215       C  0.44422336  0.57021107  0.17335211    -0.32400
C1216       C  0.44292038  0.54058465  0.17456970     0.01600
C1217       C  0.42880924  0.52778656  0.19741618    -0.23700
C1218       C  0.38472292  0.59407571  0.28675070    -0.28300
C1219       C  0.38582578  0.62371462  0.28519907     0.07300
C1220       C  0.40027659  0.63634952  0.26252146    -0.27000
H1221       H  0.38396404  0.53726404  0.28295112     0.12000
H1222       H  0.40257586  0.50852770  0.24388749     0.13100
H1223       H  0.42693619  0.65558220  0.21640520     0.12200
H1224       H  0.44546048  0.62687823  0.17734596     0.11500
H1225       H  0.45552929  0.58015603  0.15616939     0.16800
H1226       H  0.42798253  0.50492126  0.19859375     0.12700
H1227       H  0.37302888  0.58424118  0.30373133     0.15600
H1228       H  0.40083647  0.65921413  0.26102542     0.15400
C1229       C  0.54119543  0.39620450  0.17851908    -0.17500
C1230       C  0.55743525  0.37927014  0.19648801    -0.19700
C1231       C  0.57266952  0.39139402  0.21881791     0.21000
C1232       C  0.57147446  0.42082241  0.22330053    -0.02600
C1233       C  0.55513812  0.43794979  0.20506517    -0.05700
C1234       C  0.53994304  0.42555547  0.18255147     0.21300
C1235       C  0.55397297  0.46741340  0.20938494     0.19400
C1236       C  0.56928783  0.47951810  0.23170809    -0.17100
C1237       C  0.58566436  0.46255313  0.24965813    -0.19400
C1238       C  0.58693246  0.43315105  0.24569441     0.20900
C1239       C  0.60407106  0.41594539  0.26302950    -0.32400
C1240       C  0.60605972  0.38674052  0.25783632     0.01600
C1241       C  0.58983771  0.37464857  0.23611926    -0.23700
C1242       C  0.52332163  0.44262576  0.16482396    -0.28300
C1243       C  0.52135780  0.47185924  0.16957847     0.07300
C1244       C  0.53711619  0.48415685  0.19161343    -0.27000
H1245       H  0.52962055  0.38633123  0.16144274     0.12000
H1246       H  0.55823875  0.35666732  0.19279392     0.13100
H1247       H  0.56859938  0.50214107  0.23529402     0.12200
H1248       H  0.59743151  0.47245413  0.26658159     0.11500
H1249       H  0.61703880  0.42539902  0.27933387     0.16800
H1250       H  0.59159851  0.35215012  0.23192529     0.12700
H1251       H  0.51095557  0.43305991  0.14811332     0.15600
H1252       H  0.53570307  0.50675879  0.19526597     0.15400
C1253       C  0.38996108  0.04215778  0.73753791    -0.17500
C1254       C  0.40708501  0.02567769  0.71979890    -0.19700
C1255       C  0.42934597  0.03799924  0.70472867     0.21000
C1256       C  0.43456524  0.06719096  0.70771028    -0.02600
C1257       C  0.41753935  0.08374041  0.72596277    -0.05700
C1258       C  0.39496234  0.07120147  0.74072396     0.21300
C1259       C  0.42294399  0.11285279  0.72921052     0.19400
C1260       C  0.44532435  0.12514149  0.71425669    -0.17100
C1261       C  0.46204765  0.10880076  0.69599712    -0.19400
C1262       C  0.45680018  0.07984301  0.69248851     0.20900
C1263       C  0.47359497  0.06323181  0.67434675    -0.32400
C1264       C  0.46880908  0.03407196  0.67177274     0.01600
C1265       C  0.44666420  0.02160259  0.68697258    -0.23700
C1266       C  0.37746795  0.08799384  0.75799088    -0.28300
C1267       C  0.38235045  0.11717621  0.76093836     0.07300
C1268       C  0.40552245  0.12929269  0.74686565    -0.27000
H1269       H  0.37275141  0.03218192  0.74873359     0.12000
H1270       H  0.40282773  0.00329051  0.71776431     0.13100
H1271       H  0.44975601  0.14747079  0.71650238     0.12200
H1272       H  0.47911121  0.11882587  0.68461699     0.11500
H1273       H  0.49099717  0.07271766  0.66297910     0.16800
H1274       H  0.44315752  0.99904639  0.68511054     0.12700
H1275       H  0.35974980  0.07840870  0.76875286     0.15600
H1276       H  0.40940616  0.15176793  0.74877784     0.15400
C1277       C  0.52948312  0.90191418  0.72652053    -0.17500
C1278       C  0.54507062  0.88604228  0.74608331    -0.19700
C1279       C  0.57437167  0.88972540  0.74868436     0.21000
C1280       C  0.58806857  0.90955894  0.73123286    -0.02600
C1281       C  0.57242689  0.92516433  0.71107038    -0.05700
C1282       C  0.54294813  0.92151941  0.70892603     0.21300
C1283       C  0.58625437  0.94463230  0.69329821     0.19400
C1284       C  0.61551974  0.94838059  0.69593312    -0.17100
C1285       C  0.63093495  0.93318314  0.71609517    -0.19400
C1286       C  0.61741304  0.91376525  0.73384481     0.20900
C1287       C  0.63285417  0.89813446  0.75378173    -0.32400
C1288       C  0.61961531  0.87764556  0.77071511     0.01600
C1289       C  0.59026798  0.87367559  0.76809640    -0.23700
C1290       C  0.52740899  0.93801458  0.68970356    -0.28300
C1291       C  0.54099382  0.95781696  0.67227956     0.07300
C1292       C  0.57049064  0.96054816  0.67375716    -0.27000
H1293       H  0.50685737  0.89884976  0.72515585     0.12000
H1294       H  0.53416812  0.87095170  0.75927349     0.13100
H1295       H  0.62647965  0.96325886  0.68253800     0.12200
H1296       H  0.65349215  0.93655018  0.71773321     0.11500
H1297       H  0.65549621  0.90110403  0.75523582     0.16800
H1298       H  0.57988335  0.85789778  0.78091298     0.12700
H1299       H  0.50462181  0.93599231  0.68870343     0.15600
H1300       H  0.58093552  0.97611167  0.66071143     0.15400
C1301       C  0.78943370  0.12794176  0.04276988    -0.17500
C1302       C  0.81003854  0.11034940  0.03056203    -0.19700
C1303       C  0.81144231  0.08152558  0.03745051     0.21000
C1304       C  0.79145126  0.07023869  0.05642034    -0.02600
C1305       C  0.77067401  0.08798419  0.06872896    -0.05700
C1306       C  0.76985388  0.11704786  0.06211732     0.21300
C1307       C  0.75121732  0.07675739  0.08822191     0.19400
C1308       C  0.75205340  0.04781011  0.09453939    -0.17100
C1309       C  0.77237772  0.03018249  0.08209751    -0.19400
C1310       C  0.79232817  0.04124395  0.06328001     0.20900
C1311       C  0.81292297  0.02372901  0.05096167    -0.32400
C1312       C  0.83284758  0.03473788  0.03200927     0.01600
C1313       C  0.83218484  0.06369278  0.02547283    -0.23700
C1314       C  0.75035773  0.13489087  0.07593876    -0.28300
C1315       C  0.73216402  0.12410960  0.09677009     0.07300
C1316       C  0.73209033  0.09484456  0.10201383    -0.27000
H1317       H  0.78911053  0.15018744  0.03741753     0.12000
H1318       H  0.82503577  0.11935488  0.01588557     0.13100
H1319       H  0.73721172  0.03885735  0.10941062     0.12200
H1320       H  0.77268113  0.00792951  0.08742717     0.11500
H1321       H  0.81313296  0.00128565  0.05555762     0.16800
H1322       H  0.84707704  0.07202095  0.01027296     0.12700
H1323       H  0.75074177  0.15742358  0.07190255     0.15600
H1324       H  0.71807350  0.08631322  0.11792453     0.15400
C1325       C  0.79816730  0.86468795  0.94141260    -0.17500
C1326       C  0.81775151  0.88126279  0.95606071    -0.19700
C1327       C  0.81908291  0.91051307  0.95138198     0.21000
C1328       C  0.80078267  0.92306636  0.93136923    -0.02600
C1329       C  0.78111356  0.90635506  0.91656151    -0.05700
C1330       C  0.77961219  0.87707670  0.92180100     0.21300
C1331       C  0.76284381  0.91902056  0.89663330     0.19400
C1332       C  0.76441109  0.94815980  0.89163006    -0.17100
C1333       C  0.78363733  0.96476014  0.90652617    -0.19400
C1334       C  0.80174168  0.95244349  0.92650151     0.20900
C1335       C  0.82019480  0.96916297  0.94227321    -0.32400
C1336       C  0.83777131  0.95700720  0.96283756     0.01600
C1337       C  0.83771102  0.92760992  0.96689979    -0.23700
C1338       C  0.75974824  0.86071766  0.90714786    -0.28300
C1339       C  0.74169617  0.87319095  0.88697901     0.07300
C1340       C  0.74341486  0.90235680  0.88190089    -0.27000
H1341       H  0.79744805  0.84218864  0.94552052     0.12000
H1342       H  0.83164873  0.87124489  0.97127034     0.13100
H1343       H  0.75059720  0.95816172  0.87634451     0.12200
H1344       H  0.78419975  0.98729447  0.90257379     0.11500
H1345       H  0.82029884  0.99188166  0.93926718     0.16800
H1346       H  0.85109840  0.91834423  0.98302527     0.12700
H1347       H  0.75895697  0.83813304  0.91082138     0.15600
H1348       H  0.72975197  0.91208097  0.86628642     0.15400
C1349       C  0.18888264  0.94922030  0.11916336    -0.17500
C1350       C  0.20729234  0.93589626  0.13810684    -0.19700
C1351       C  0.23189551  0.92227903  0.12835850     0.21000
C1352       C  0.23835916  0.92253665  0.09932210    -0.02600
C1353       C  0.21961366  0.93581057  0.08014615    -0.05700
C1354       C  0.19466073  0.94906144  0.09010855     0.21300
C1355       C  0.22567202  0.93551583  0.05102109     0.19400
C1356       C  0.25054215  0.92229692  0.04134672    -0.17100
C1357       C  0.26911007  0.90915727  0.06033835    -0.19400
C1358       C  0.26315987  0.90893794  0.08937535     0.20900
C1359       C  0.28090471  0.89446006  0.10848851    -0.32400
C1360       C  0.27369749  0.89293500  0.13724437     0.01600
C1361       C  0.24954244  0.90750010  0.14703196    -0.23700
C1362       C  0.17601197  0.96203260  0.07090613    -0.28300
C1363       C  0.18198866  0.96207455  0.04181396     0.07300
C1364       C  0.20681497  0.94849313  0.03209295    -0.27000
H1365       H  0.16994750  0.95940993  0.12723125     0.12000
H1366       H  0.20209193  0.93593487  0.16037907     0.13100
H1367       H  0.25556264  0.92197140  0.01903532     0.12200
H1368       H  0.28796477  0.89883691  0.05225039     0.11500
H1369       H  0.29924458  0.88296122  0.10076740     0.16800
H1370       H  0.24389204  0.90638427  0.16918573     0.12700
H1371       H  0.15723862  0.97275911  0.07867699     0.15600
H1372       H  0.21153590  0.94813817  0.00970491     0.15400
C1373       C  0.18201077  0.10477363  0.94150739    -0.17500
C1374       C  0.19947342  0.12205997  0.92524472    -0.19700
C1375       C  0.22173200  0.11031668  0.90939054     0.21000
C1376       C  0.22636555  0.08084960  0.90974382    -0.02600
C1377       C  0.20893681  0.06342956  0.92643394    -0.05700
C1378       C  0.18663969  0.07546341  0.94239174     0.21300
C1379       C  0.21402082  0.03404490  0.92738074     0.19400
C1380       C  0.23607647  0.02227262  0.91126027    -0.17100
C1381       C  0.25301256  0.03947051  0.89432259    -0.19400
C1382       C  0.24839904  0.06879178  0.89344829     0.20900
C1383       C  0.26525590  0.08624394  0.87644930    -0.32400
C1384       C  0.26083190  0.11566517  0.87617376     0.01600
C1385       C  0.23922682  0.12751741  0.89296289    -0.23700
C1386       C  0.16981657  0.05808209  0.95945359    -0.28300
C1387       C  0.17543023  0.02894544  0.96125363     0.07300
C1388       C  0.19732158  0.01704421  0.94485157    -0.27000
H1389       H  0.16502869  0.11437964  0.95360740     0.12000
H1390       H  0.19553875  0.14464502  0.92504630     0.13100
H1391       H  0.24025386  0.99973376  0.91177274     0.12200
H1392       H  0.26982510  0.02984453  0.88201336     0.11500
H1393       H  0.28180702  0.07699595  0.86349228     0.16800
H1394       H  0.23537894  0.15012742  0.89248308     0.12700
H1395       H  0.15319022  0.06735920  0.97229776     0.15600
H1396       H  0.20162731  0.99454240  0.94612558     0.15400
C1397       C  0.53907922  0.09934761  0.27255137    -0.17500
C1398       C  0.55364446  0.11377058  0.25138668    -0.19700
C1399       C  0.58290126  0.11004083  0.24810203     0.21000
C1400       C  0.59765663  0.09167043  0.26644274    -0.02600
C1401       C  0.58300636  0.07738109  0.28807915    -0.05700
C1402       C  0.55355314  0.08111946  0.29094679     0.21300
C1403       C  0.59774144  0.05908510  0.30656200     0.19400
C1404       C  0.62701511  0.05540701  0.30326688    -0.17100
C1405       C  0.64151840  0.06952044  0.28178024    -0.19400
C1406       C  0.62703003  0.08762819  0.26322098     0.20900
C1407       C  0.64148475  0.10217667  0.24186983    -0.32400
C1408       C  0.62708263  0.12119240  0.22398383     0.01600
C1409       C  0.59769620  0.12473366  0.22711520    -0.23700
C1410       C  0.53894700  0.06595477  0.31162372    -0.28300
C1411       C  0.55330863  0.04711254  0.32957272     0.07300
C1412       C  0.58278722  0.04419169  0.32740059    -0.27000
H1413       H  0.51644957  0.10238868  0.27447991     0.12000
H1414       H  0.54199421  0.12780672  0.23752494     0.13100
H1415       H  0.63868712  0.04145684  0.31720224     0.12200
H1416       H  0.66410452  0.06629029  0.27970055     0.11500
H1417       H  0.66417384  0.09956537  0.23998035     0.16800
H1418       H  0.58639976  0.13939686  0.21359314     0.12700
H1419       H  0.51615340  0.06794672  0.31315030     0.15600
H1420       H  0.59377143  0.02927079  0.34090203     0.15400
C1421       C  0.43931596  0.88095290  0.31081870    -0.17500
C1422       C  0.45598115  0.89820935  0.32799914    -0.19700
C1423       C  0.45953721  0.92686344  0.32145821     0.21000
C1424       C  0.44625733  0.93815562  0.29720442    -0.02600
C1425       C  0.42963857  0.92066737  0.27968881    -0.05700
C1426       C  0.42604605  0.89201895  0.28671708     0.21300
C1427       C  0.41627546  0.93193913  0.25543570     0.19400
C1428       C  0.41978497  0.96062358  0.24897775    -0.17100
C1429       C  0.43619618  0.97796965  0.26637471    -0.19400
C1430       C  0.44947879  0.96692936  0.29050021     0.20900
C1431       C  0.46615443  0.98411607  0.30785750    -0.32400
C1432       C  0.48023099  0.97291198  0.33162454     0.01600
C1433       C  0.47641852  0.94430431  0.33851315    -0.23700
C1434       C  0.40855032  0.87511080  0.27002267    -0.28300
C1435       C  0.39445694  0.88629758  0.24633387     0.07300
C1436       C  0.39894383  0.91455337  0.23866649    -0.27000
H1437       H  0.43667337  0.85895490  0.31647804     0.12000
H1438       H  0.46601010  0.88915633  0.34647049     0.13100
H1439       H  0.40965199  0.96971150  0.23058140     0.12200
H1440       H  0.43852295  0.00005680  0.26093497     0.11500
H1441       H  0.46844773  0.00627492  0.30265238     0.16800
H1442       H  0.48728441  0.93541563  0.35659975     0.12700
H1443       H  0.40508671  0.85329400  0.27601320     0.15600
H1444       H  0.38776258  0.92334517  0.22071972     0.15400
C1445       C  0.60233854  0.68309562  0.95484040    -0.17500
C1446       C  0.62110043  0.70107424  0.94089223    -0.19700
C1447       C  0.61087379  0.72334184  0.92412573     0.21000
C1448       C  0.58144708  0.72744623  0.92129286    -0.02600
C1449       C  0.56253981  0.70943963  0.93548890    -0.05700
C1450       C  0.57302876  0.68714953  0.95237164     0.21300
C1451       C  0.53313877  0.71392309  0.93296811     0.19400
C1452       C  0.52288021  0.73593055  0.91596484    -0.17100
C1453       C  0.54159405  0.75347222  0.90155983    -0.19400
C1454       C  0.57086637  0.74944971  0.90413774     0.20900
C1455       C  0.58969632  0.76671587  0.88940206    -0.32400
C1456       C  0.61902076  0.76256310  0.89177902     0.01600
C1457       C  0.62949438  0.74117613  0.90962266    -0.23700
C1458       C  0.55400834  0.66978693  0.96696275    -0.28300
C1459       C  0.52478222  0.67490534  0.96525877     0.07300
C1460       C  0.51450220  0.69671148  0.94796075    -0.27000
H1461       H  0.61076667  0.66611447  0.96770071     0.12000
H1462       H  0.64362157  0.69749558  0.94314479     0.13100
H1463       H  0.50036020  0.73959681  0.91382782     0.12200
H1464       H  0.53316246  0.77023819  0.88843000     0.11500
H1465       H  0.58151658  0.78307489  0.87559367     0.16800
H1466       H  0.65208049  0.73753107  0.91114105     0.12700
H1467       H  0.56189665  0.65314914  0.98060291     0.15600
H1468       H  0.49192727  0.70061753  0.94674030     0.15400
C1469       C  0.44235149  0.68851587  0.11922240    -0.17500
C1470       C  0.43015274  0.70764389  0.13833421    -0.19700
C1471       C  0.41733303  0.73268681  0.12871222     0.21000
C1472       C  0.41727034  0.73884933  0.09963594    -0.02600
C1473       C  0.42943770  0.71942776  0.08031118    -0.05700
C1474       C  0.44187328  0.69403244  0.09013021     0.21300
C1475       C  0.42890425  0.72530781  0.05117328     0.19400
C1476       C  0.41651317  0.75058869  0.04161842    -0.17100
C1477       C  0.40437910  0.76976792  0.06074498    -0.19400
C1478       C  0.40443196  0.76405507  0.08979965     0.20900
C1479       C  0.39087526  0.78245379  0.10903590    -0.32400
C1480       C  0.38954720  0.77556729  0.13783712     0.01600
C1481       C  0.40356414  0.75107457  0.14754570    -0.23700
C1482       C  0.45383374  0.67477407  0.07073441    -0.28300
C1483       C  0.45375909  0.68071497  0.04166782     0.07300
C1484       C  0.44096275  0.70593185  0.03210818    -0.27000
H1485       H  0.45193313  0.66926695  0.12719261     0.12000
H1486       H  0.43040328  0.70264834  0.16064489     0.13100
H1487       H  0.41604526  0.75545876  0.01928865     0.12200
H1488       H  0.39463350  0.78892621  0.05275914     0.11500
H1489       H  0.37982320  0.80105505  0.10138584     0.16800
H1490       H  0.40264356  0.74566765  0.16976107     0.12700
H1491       H  0.46405116  0.65566933  0.07829173     0.15600
H1492       H  0.44079467  0.71064623  0.00972197     0.15400
C1493       C  0.52234652  0.27641952  0.08239727    -0.17500
C1494       C  0.54059840  0.25854619  0.09735644    -0.19700
C1495       C  0.56998779  0.26110505  0.09454144     0.21000
C1496       C  0.58110885  0.28225572  0.07682596    -0.02600
C1497       C  0.56265693  0.30065892  0.06207888    -0.05700
C1498       C  0.53314586  0.29739867  0.06459047     0.21300
C1499       C  0.57371611  0.32199694  0.04451756     0.19400
C1500       C  0.60313393  0.32481739  0.04205411    -0.17100
C1501       C  0.62140837  0.30638847  0.05642668    -0.19400
C1502       C  0.61061883  0.28489972  0.07370475     0.20900
C1503       C  0.62877323  0.26611039  0.08801952    -0.32400
C1504       C  0.61784611  0.24507094  0.10594934     0.01600
C1505       C  0.58839036  0.24289475  0.10916886    -0.23700
C1506       C  0.51495207  0.31476900  0.04882597    -0.28300
C1507       C  0.52577882  0.33570832  0.03090309     0.07300
C1508       C  0.55516070  0.33964200  0.02927563    -0.27000
H1509       H  0.49974313  0.27372933  0.08465011     0.12000
H1510       H  0.53170075  0.24250225  0.11092764     0.13100
H1511       H  0.61203306  0.34108456  0.02873674     0.12200
H1512       H  0.64400743  0.30889543  0.05395018     0.11500
H1513       H  0.65143997  0.26836927  0.08580747     0.16800
H1514       H  0.57976639  0.22694355  0.12304330     0.12700
H1515       H  0.49229140  0.31178523  0.05012618     0.15600
H1516       H  0.56352927  0.35563811  0.01528507     0.15400
C1517       C  0.46332444  0.27904885  0.90031043    -0.17500
C1518       C  0.44742263  0.25957564  0.88485456    -0.19700
C1519       C  0.41805625  0.25800650  0.88858325     0.21000
C1520       C  0.40448559  0.27669555  0.90759827    -0.02600
C1521       C  0.42048048  0.29667402  0.92286477    -0.05700
C1522       C  0.45009683  0.29746786  0.91955095     0.21300
C1523       C  0.40691448  0.31544458  0.94184326     0.19400
C1524       C  0.37746006  0.31431421  0.94503984    -0.17100
C1525       C  0.36164096  0.29436934  0.93007131    -0.19400
C1526       C  0.37497804  0.27530892  0.91151668     0.20900
C1527       C  0.35928198  0.25511696  0.89659075    -0.32400
C1528       C  0.37257962  0.23664079  0.87729620     0.01600
C1529       C  0.40201990  0.23823747  0.87346644    -0.23700
C1530       C  0.46602870  0.31610115  0.93611135    -0.28300
C1531       C  0.45274163  0.33421816  0.95566125     0.07300
C1532       C  0.42314129  0.33437647  0.95789395    -0.27000
H1533       H  0.48602721  0.27952734  0.89739960     0.12000
H1534       H  0.45814338  0.24552282  0.87020506     0.13100
H1535       H  0.36668791  0.32859798  0.95943678     0.12200
H1536       H  0.33896656  0.29376575  0.93311665     0.11500
H1537       H  0.33654613  0.25451210  0.89923985     0.16800
H1538       H  0.41242267  0.22432688  0.85843799     0.12700
H1539       H  0.48887415  0.31612155  0.93432795     0.15600
H1540       H  0.41293638  0.34825810  0.97309200     0.15400
C1541       C  0.12503573  0.80247718  0.08872480    -0.17500
C1542       C  0.10723718  0.81949725  0.07243209    -0.19700
C1543       C  0.07929546  0.81133227  0.06723458     0.21000
C1544       C  0.06920509  0.78566599  0.07844496    -0.02600
C1545       C  0.08725245  0.76835235  0.09475788    -0.05700
C1546       C  0.11519445  0.77697930  0.09998798     0.21300
C1547       C  0.07727448  0.74265126  0.10610146     0.19400
C1548       C  0.04927906  0.73455730  0.10085086    -0.17100
C1549       C  0.03135501  0.75176201  0.08467709    -0.19400
C1550       C  0.04111926  0.77734230  0.07340574     0.20900
C1551       C  0.02340238  0.79463904  0.05700459    -0.32400
C1552       C  0.03349774  0.82000779  0.04523783     0.01600
C1553       C  0.06143065  0.82826106  0.05073413    -0.23700
C1554       C  0.13266920  0.76035862  0.11700460    -0.28300
C1555       C  0.12276376  0.73519204  0.12913560     0.07300
C1556       C  0.09524723  0.72600157  0.12308941    -0.27000
H1557       H  0.14647973  0.80933817  0.09264971     0.12000
H1558       H  0.11531063  0.83910304  0.06395943     0.13100
H1559       H  0.04117957  0.71500661  0.10940750     0.12200
H1560       H  0.00982813  0.74504472  0.08097215     0.11500
H1561       H  0.00176873  0.78826568  0.05326234     0.16800
H1562       H  0.06958220  0.84747291  0.04146363     0.12700
H1563       H  0.15395656  0.76744585  0.12149283     0.15600
H1564       H  0.08746034  0.70677916  0.13265027     0.15400
C1565       C  0.95620919  0.74392648  0.89968332    -0.17500
C1566       C  0.97294655  0.76249202  0.91547165    -0.19700
C1567       C  0.96041125  0.78340987  0.93255404     0.21000
C1568       C  0.93070964  0.78565828  0.93375241    -0.02600
C1569       C  0.91381504  0.76654904  0.91824277    -0.05700
C1570       C  0.92660279  0.74568729  0.90094982     0.21300
C1571       C  0.88413486  0.76834865  0.92006411     0.19400
C1572       C  0.87158069  0.78942841  0.93692860    -0.17100
C1573       C  0.88828434  0.80852863  0.95202052    -0.19400
C1574       C  0.91786368  0.80677511  0.95070719     0.20900
C1575       C  0.93479095  0.82527198  0.96658842    -0.32400
C1576       C  0.96435133  0.82246894  0.96625228     0.01600
C1577       C  0.97700618  0.80170259  0.94893366    -0.23700
C1578       C  0.90956316  0.72716342  0.88509961    -0.28300
C1579       C  0.87988972  0.72878677  0.88691281     0.07300
C1580       C  0.86746589  0.74928656  0.90474800    -0.27000
H1581       H  0.96643730  0.72807612  0.88659215     0.12000
H1582       H  0.99573967  0.76047075  0.91432871     0.13100
H1583       H  0.84878944  0.79118521  0.93841816     0.12200
H1584       H  0.87804311  0.82453827  0.96492132     0.11500
H1585       H  0.92499504  0.84094007  0.98024980     0.16800
H1586       H  0.99982209  0.79942908  0.94876761     0.12700
H1587       H  0.91934354  0.71158065  0.87134582     0.15600
H1588       H  0.84465234  0.75110799  0.90596851     0.15400
C1589       C  0.87965784  0.54539787  0.68449614    -0.17500
C1590       C  0.86303090  0.55951124  0.70466914    -0.19700
C1591       C  0.87567312  0.57418040  0.72715513     0.21000
C1592       C  0.90540215  0.57457828  0.72929948    -0.02600
C1593       C  0.92218050  0.56021234  0.70901790    -0.05700
C1594       C  0.90926587  0.54556079  0.68645505     0.21300
C1595       C  0.95187661  0.56048841  0.71138332     0.19400
C1596       C  0.96456977  0.57520682  0.73375086    -0.17100
C1597       C  0.94799620  0.58970175  0.75358657    -0.19400
C1598       C  0.91841577  0.58958920  0.75152983     0.20900
C1599       C  0.90169788  0.60478449  0.77092233    -0.32400
C1600       C  0.87203812  0.60497316  0.76871261     0.01600
C1601       C  0.85917615  0.58906071  0.74708391    -0.23700
C1602       C  0.92616996  0.53093671  0.66663153    -0.28300
C1603       C  0.95576740  0.53044946  0.66943201     0.07300
C1604       C  0.96838674  0.54568448  0.69162865    -0.25800
H1605       H  0.86932479  0.53428088  0.66737983     0.12000
H1606       H  0.84024540  0.55909277  0.70257197     0.13100
H1607       H  0.98736033  0.57555721  0.73588103     0.12200
H1608       H  0.95833839  0.60108482  0.77051542     0.11500
H1609       H  0.91181009  0.61700416  0.78742195     0.16800
H1610       H  0.83638034  0.58940944  0.74490584     0.12700
H1611       H  0.91631717  0.51902301  0.64975736     0.15600
H1612       H  0.99119953  0.54554002  0.69378971     0.15400
C1613       C  0.04162480  0.38131554  0.73193627    -0.17500
C1614       C  0.02478549  0.39658013  0.71307575    -0.19700
C1615       C  0.03629042  0.41880435  0.69738900     0.21000
C1616       C  0.06509260  0.42569037  0.70058905    -0.02600
C1617       C  0.08203699  0.41042600  0.71984269    -0.05700
C1618       C  0.07021228  0.38810841  0.73550084     0.21300
C1619       C  0.11077071  0.41740953  0.72333843     0.19400
C1620       C  0.12227949  0.43959576  0.70750812    -0.17100
C1621       C  0.10547240  0.45475768  0.68841029    -0.19400
C1622       C  0.07685150  0.44801848  0.68481818     0.20900
C1623       C  0.05956239  0.46362348  0.66634401    -0.32400
C1624       C  0.03071553  0.45731597  0.66387941     0.01600
C1625       C  0.01930620  0.43472615  0.67911359    -0.23700
C1626       C  0.08726329  0.37255538  0.75404423    -0.28300
C1627       C  0.11612003  0.37881173  0.75716811     0.07300
C1628       C  0.12759343  0.40168472  0.74212576    -0.27000
H1629       H  0.03227358  0.36418074  0.74375535     0.12000
H1630       H  0.00271438  0.39106349  0.71083169     0.13100
H1631       H  0.14431752  0.44519356  0.70985437     0.12200
H1632       H  0.11483386  0.47185515  0.67654496     0.11500
H1633       H  0.06815198  0.48139289  0.65485230     0.16800
H1634       H  0.99694580  0.43017566  0.67732375     0.12700
H1635       H  0.07816793  0.35501741  0.76549058     0.15600
H1636       H  0.14985170  0.40654608  0.74414467     0.15400
C1637       C  0.95316138  0.23835496  0.09966068    -0.17500
C1638       C  0.96951416  0.21786952  0.08573082    -0.19700
C1639       C  0.95782676  0.20153700  0.06393812     0.21000
C1640       C  0.92938111  0.20598497  0.05601928    -0.02600
C1641       C  0.91295380  0.22689192  0.06990369    -0.05700
C1642       C  0.92487198  0.24301060  0.09193542     0.21300
C1643       C  0.88455586  0.23144572  0.06192910     0.19400
C1644       C  0.87289207  0.21512883  0.04009020    -0.17100
C1645       C  0.88915538  0.19444381  0.02631871    -0.19400
C1646       C  0.91739313  0.18967012  0.03412105     0.20900
C1647       C  0.93401677  0.16928566  0.02007780    -0.32400
C1648       C  0.96244707  0.16516485  0.02757555     0.01600
C1649       C  0.97420155  0.18121995  0.04956920    -0.23700
C1650       C  0.90812097  0.26297829  0.10634891    -0.28300
C1651       C  0.87948474  0.26710988  0.09915666     0.07300
C1652       C  0.86809503  0.25165678  0.07642341    -0.27000
H1653       H  0.96263720  0.25051709  0.11656268     0.12000
H1654       H  0.99131392  0.21476863  0.09204203     0.13100
H1655       H  0.85110987  0.21826103  0.03374416     0.12200
H1656       H  0.87962754  0.18217240  0.00952568     0.11500
H1657       H  0.92520392  0.15729743  0.00267574     0.16800
H1658       H  0.99631455  0.17837225  0.05490626     0.12700
H1659       H  0.91717999  0.27463864  0.12383901     0.15600
H1660       H  0.84603500  0.25434840  0.07085191     0.15400
C1661       C  0.12380387  0.20029998  0.92632153    -0.17500
C1662       C  0.10776955  0.18125659  0.94201420    -0.19700
C1663       C  0.07860057  0.17898562  0.93742191     0.21000
C1664       C  0.06551940  0.19569218  0.91641363    -0.02600
C1665       C  0.08178078  0.21471391  0.90035779    -0.05700
C1666       C  0.11097267  0.21722797  0.90562639     0.21300
C1667       C  0.06880826  0.23136721  0.87925938     0.19400
C1668       C  0.03967568  0.22875565  0.87439670    -0.17100
C1669       C  0.02344573  0.21027137  0.89067057    -0.19400
C1670       C  0.03612160  0.19383568  0.91186920     0.20900
C1671       C  0.01987040  0.17620204  0.92916700    -0.32400
C1672       C  0.03276010  0.16007589  0.95052915     0.01600
C1673       C  0.06215809  0.16098301  0.95407917    -0.23700
C1674       C  0.12692213  0.23650532  0.89004146    -0.28300
C1675       C  0.11433326  0.25303853  0.86875018     0.07300
C1676       C  0.08521074  0.25026636  0.86341577    -0.27000
H1677       H  0.14625737  0.20186300  0.93045335     0.12000
H1678       H  0.11812665  0.16858268  0.95802572     0.13100
H1679       H  0.02937263  0.24126306  0.85822520     0.12200
H1680       H  0.00092286  0.20899382  0.88682085     0.11500
H1681       H  0.99712385  0.17548667  0.92655629     0.16800
H1682       H  0.07196975  0.14876924  0.97079671     0.12700
H1683       H  0.14940602  0.23806500  0.89406065     0.15600
H1684       H  0.07534099  0.26273431  0.84693470     0.15400
C1685       C  0.07194115  0.62651680  0.31297192    -0.17500
C1686       C  0.05546259  0.60793736  0.32877894    -0.19700
C1687       C  0.05014529  0.58053637  0.31881389     0.21000
C1688       C  0.06121860  0.57194361  0.29242200    -0.02600
C1689       C  0.07758815  0.59082457  0.27628019    -0.05700
C1690       C  0.08320396  0.61807790  0.28683288     0.21300
C1691       C  0.08875909  0.58226209  0.24988248     0.19400
C1692       C  0.08318884  0.55493220  0.23982992    -0.17100
C1693       C  0.06715425  0.53614118  0.25593976    -0.19400
C1694       C  0.05622325  0.54441007  0.28230388     0.20900
C1695       C  0.04042470  0.52560384  0.29871560    -0.32400
C1696       C  0.02877224  0.53407766  0.32488858     0.01600
C1697       C  0.03388582  0.56166026  0.33475133    -0.23700
C1698       C  0.10063073  0.63618409  0.27146871    -0.28300
C1699       C  0.11261221  0.62759141  0.24558582     0.07300
C1700       C  0.10598233  0.60086399  0.23449201    -0.27000
H1701       H  0.07606963  0.64743355  0.32130840     0.12000
H1702       H  0.04709417  0.61492277  0.34893980     0.13100
H1703       H  0.09154894  0.54794881  0.21966538     0.12200
H1704       H  0.06337592  0.51507895  0.24780674     0.11500
H1705       H  0.03730018  0.50426226  0.29104565     0.16800
H1706       H  0.02477268  0.56868755  0.35456905     0.12700
H1707       H  0.10545118  0.65687505  0.28003736     0.15600
H1708       H  0.11529977  0.59406587  0.21467303     0.15400
C1709       C  0.96499626  0.39340830  0.27941482    -0.17500
C1710       C  0.95025569  0.37867339  0.25844384    -0.19700
C1711       C  0.92390979  0.38853648  0.24886555     0.21000
C1712       C  0.91243250  0.41364156  0.26042844    -0.02600
C1713       C  0.92714367  0.42833864  0.28183515    -0.05700
C1714       C  0.95357467  0.41816612  0.29135147     0.21300
C1715       C  0.91549557  0.45332132  0.29354274     0.19400
C1716       C  0.88938533  0.46343320  0.28367268    -0.17100
C1717       C  0.87483076  0.44887558  0.26250268    -0.19400
C1718       C  0.88611882  0.42393532  0.25082601     0.20900
C1719       C  0.87115338  0.40874686  0.23027905    -0.32400
C1720       C  0.88178426  0.38300170  0.21945267     0.01600
C1721       C  0.90852648  0.37337069  0.22849136    -0.23700
C1722       C  0.96836159  0.43329868  0.31214762    -0.28300
C1723       C  0.95695998  0.45831776  0.32360466     0.07300
C1724       C  0.93047365  0.46810765  0.31440851    -0.27000
H1725       H  0.98532195  0.38537791  0.28636364     0.12000
H1726       H  0.95942504  0.35947832  0.24979141     0.13100
H1727       H  0.88021258  0.48263319  0.29232170     0.12200
H1728       H  0.85462298  0.45704477  0.25538039     0.11500
H1729       H  0.85056593  0.41641426  0.22368323     0.16800
H1730       H  0.91697023  0.35359883  0.22040102     0.12700
H1731       H  0.98918473  0.42625367  0.31872574     0.15600
H1732       H  0.92213857  0.48785723  0.32270235     0.15400
C1733       C  0.23648930  0.56231408  0.05087871    -0.17500
C1734       C  0.22102845  0.57929393  0.06969628    -0.19700
C1735       C  0.23304072  0.58815311  0.09529502     0.21000
C1736       C  0.26076028  0.57923830  0.10219587    -0.02600
C1737       C  0.27628711  0.56194103  0.08329524    -0.05700
C1738       C  0.26420010  0.55372489  0.05738163     0.21300
C1739       C  0.30407112  0.55331001  0.09013422     0.19400
C1740       C  0.31595204  0.56172110  0.11592988    -0.17100
C1741       C  0.30069399  0.57903235  0.13452128    -0.19400
C1742       C  0.27322970  0.58809812  0.12770263     0.20900
C1743       C  0.25834879  0.60648449  0.14562577    -0.32400
C1744       C  0.23105230  0.61627345  0.13857319     0.01600
C1745       C  0.21820427  0.60640294  0.11370050    -0.23700
C1746       C  0.28014660  0.53741077  0.03826336    -0.28300
C1747       C  0.30799668  0.52878079  0.04478753     0.07300
C1748       C  0.31961284  0.53666799  0.07098886    -0.27000
H1749       H  0.22683611  0.55608478  0.03110426     0.12000
H1750       H  0.19980569  0.58585456  0.06401574     0.13100
H1751       H  0.33720943  0.55522643  0.12156769     0.12200
H1752       H  0.31051135  0.58560662  0.15410734     0.11500
H1753       H  0.26832564  0.61365925  0.16493850     0.16800
H1754       H  0.19724261  0.61385451  0.10809686     0.12700
H1755       H  0.27099401  0.53193909  0.01803210     0.15600
H1756       H  0.34074585  0.52976155  0.07659983     0.15400
C1757       C  0.26050453  0.39603363  0.97267779    -0.17500
C1758       C  0.24395675  0.37940536  0.95466922    -0.19700
C1759       C  0.24407302  0.38410447  0.92540826     0.21000
C1760       C  0.26128416  0.40563154  0.91422050    -0.02600
C1761       C  0.27839597  0.42201614  0.93230946    -0.05700
C1762       C  0.27775048  0.41742240  0.96172279     0.21300
C1763       C  0.29595099  0.44316855  0.92094735     0.19400
C1764       C  0.29617421  0.44783319  0.89172802    -0.17100
C1765       C  0.27896985  0.43188174  0.87388169    -0.19400
C1766       C  0.26144127  0.41082271  0.88492937     0.20900
C1767       C  0.24434301  0.39467841  0.86707561    -0.32400
C1768       C  0.22751297  0.37279302  0.87784626     0.01600
C1769       C  0.22751095  0.36757628  0.90710069    -0.23700
C1770       C  0.29405764  0.43457600  0.97960860    -0.28300
C1771       C  0.31140861  0.45582020  0.96835812     0.07300
C1772       C  0.31259023  0.45965457  0.93901300    -0.27000
H1773       H  0.25980936  0.39215913  0.99520122     0.12000
H1774       H  0.23092885  0.36298031  0.96365532     0.13100
H1775       H  0.30949521  0.46399873  0.88268640     0.12200
H1776       H  0.27941715  0.43598812  0.85139778     0.11500
H1777       H  0.24492687  0.39856824  0.84454148     0.16800
H1778       H  0.21475196  0.35065140  0.91556000     0.12700
H1779       H  0.29316622  0.43159612  0.00227759     0.15600
H1780       H  0.32568637  0.47623870  0.93036473     0.15400
C1781       C  0.71696466  0.52564769  0.91521017    -0.17500
C1782       C  0.73775577  0.54135001  0.90151033    -0.19700
C1783       C  0.73764314  0.57094425  0.90329205     0.21000
C1784       C  0.71640127  0.58487331  0.91914899    -0.02600
C1785       C  0.69515050  0.56902876  0.93265819    -0.05700
C1786       C  0.69558656  0.53928673  0.93073913     0.21300
C1787       C  0.67363656  0.58289979  0.94823244     0.19400
C1788       C  0.67360321  0.61252718  0.95004152    -0.17100
C1789       C  0.69473612  0.62823728  0.93672818    -0.19400
C1790       C  0.71623787  0.61460971  0.92128435     0.20900
C1791       C  0.73712196  0.63020244  0.90729947    -0.32400
C1792       C  0.75766847  0.61650088  0.89052627     0.01600
C1793       C  0.75797270  0.58685111  0.88890984    -0.23700
C1794       C  0.67506844  0.52362295  0.94496064    -0.28300
C1795       C  0.65413864  0.53714953  0.96130830     0.07300
C1796       C  0.65306987  0.56683574  0.96231934    -0.27000
H1797       H  0.71760415  0.50279922  0.91365563     0.12000
H1798       H  0.75391128  0.53033508  0.88947240     0.13100
H1799       H  0.65730758  0.62356156  0.96188411     0.12200
H1800       H  0.69418944  0.65107417  0.93841762     0.11500
H1801       H  0.73642305  0.65309414  0.90819181     0.16800
H1802       H  0.77362867  0.57621748  0.87588505     0.12700
H1803       H  0.67588932  0.50071913  0.94415439     0.15600
H1804       H  0.63717237  0.57729108  0.97519122     0.15400
C1805       C  0.70509769  0.37662022  0.04503511    -0.17500
C1806       C  0.68384745  0.39232026  0.03155961    -0.19700
C1807       C  0.67731501  0.41990823  0.04053645     0.21000
C1808       C  0.69231164  0.43171187  0.06345562    -0.02600
C1809       C  0.71382039  0.41587191  0.07701505    -0.05700
C1810       C  0.72027001  0.38821412  0.06772945     0.21300
C1811       C  0.72884519  0.42773282  0.09984538     0.19400
C1812       C  0.72234196  0.45532931  0.10882049    -0.17100
C1813       C  0.70126898  0.47110667  0.09523588    -0.19400
C1814       C  0.68616519  0.45952409  0.07253862     0.20900
C1815       C  0.66565991  0.47556737  0.05822298    -0.32400
C1816       C  0.65112829  0.46418744  0.03501622     0.01600
C1817       C  0.65672297  0.43622800  0.02649291    -0.23700
C1818       C  0.74144611  0.37248016  0.08155409    -0.28300
C1819       C  0.75615572  0.38386219  0.10482467     0.07300
C1820       C  0.74982251  0.41169881  0.11357298    -0.27000
H1821       H  0.70968416  0.35538220  0.03767424     0.12000
H1822       H  0.67261644  0.38291758  0.01398910     0.13100
H1823       H  0.73362621  0.46476474  0.12633024     0.12200
H1824       H  0.69685844  0.49244570  0.10242797     0.11500
H1825       H  0.66180579  0.49737082  0.06430395     0.16800
H1826       H  0.64605436  0.42774935  0.00810006     0.12700
H1827       H  0.74579461  0.35100767  0.07473031     0.15600
H1828       H  0.76078081  0.42072985  0.13151140     0.15400
loop_ 
_geom_bond_atom_site_label_1 
_geom_bond_atom_site_label_2 
_geom_bond_distance 
_geom_bond_site_symmetry_2 
_ccdc_geom_bond_type 
Zn1           O5   1.974   1_554  S
Zn1           O6   2.030       .  S
Zn1          O10   2.047       .  S
Zn1          O17   2.032       .  S
Zn2           O5   1.980       .  S
Zn2           O7   2.037       .  S
Zn2           O9   2.037       .  S
Zn2          O13   2.060       .  S
Zn3           O5   1.993   1_554  S
Zn3           O8   2.061       .  S
Zn3          O11   2.046       .  S
Zn3          O14   2.051       .  S
Zn4           O5   1.978       .  S
Zn4          O12   2.038       .  S
Zn4          O15   2.071       .  S
Zn4          O16   2.053       .  S
O6           C18   1.275   1_554  A
O7           C19   1.277       .  A
O8           C20   1.277       .  A
O9           C18   1.277       .  A
O10          C20   1.278       .  A
O11          C19   1.279   1_554  A
O12          C21   1.279   1_556  A
O13          C22   1.278       .  A
O14          C21   1.278       .  A
O15          C22   1.280       .  A
O16          C23   1.278       .  A
O17          C23   1.276   1_554  A
C18         C241   1.490       .  S
C19         C104   1.493   1_556  S
C20         C389   1.502       .  S
C21         C250   1.495       .  S
C22         C480   1.507       .  S
C23          C95   1.495       .  S
Zn24         O28   1.985       .  S
Zn24         O29   2.051       .  S
Zn24         O33   2.056       .  S
Zn24         O40   2.042       .  S
Zn25         O28   1.991       .  S
Zn25         O30   2.058       .  S
Zn25         O32   2.061       .  S
Zn25         O36   2.059       .  S
Zn26         O28   1.983   1_565  S
Zn26         O31   2.048       .  S
Zn26         O34   2.035       .  S
Zn26         O37   2.042       .  S
Zn27         O28   1.988   1_565  S
Zn27         O35   2.056       .  S
Zn27         O38   2.058       .  S
Zn27         O39   2.046       .  S
O29          C41   1.277       .  A
O30          C42   1.278       .  A
O31          C43   1.275   1_565  A
O32          C41   1.278       .  A
O33          C43   1.277       .  A
O34          C42   1.276   1_565  A
O35          C44   1.277       .  A
O36          C45   1.278       .  A
O37          C44   1.275       .  A
O38          C45   1.278   1_565  A
O39          C46   1.277   1_565  A
O40          C46   1.276       .  A
C41         C428   1.486       .  S
C42         C309   1.480       .  S
C43         C533   1.484       .  S
C44         C439   1.483       .  S
C45         C542   1.487       .  S
C46         C261   1.479       .  S
Zn47         O51   1.982   1_455  S
Zn47         O52   2.036       .  S
Zn47         O56   2.053       .  S
Zn47         O63   2.033       .  S
Zn48         O51   1.986       .  S
Zn48         O53   2.050       .  S
Zn48         O55   2.054       .  S
Zn48         O59   2.058       .  S
Zn49         O51   1.986   1_455  S
Zn49         O54   2.057       .  S
Zn49         O57   2.046       .  S
Zn49         O60   2.044       .  S
Zn50         O51   1.988       .  S
Zn50         O58   2.056       .  S
Zn50         O61   2.057       .  S
Zn50         O62   2.039       .  S
O52          C64   1.275   1_455  A
O53          C65   1.278       .  A
O54          C66   1.276       .  A
O55          C64   1.277       .  A
O56          C66   1.276       .  A
O57          C65   1.277   1_455  A
O58          C67   1.278       .  A
O59          C68   1.277       .  A
O60          C67   1.276   1_455  A
O61          C68   1.277       .  A
O62          C69   1.275       .  A
O63          C69   1.275   1_455  A
C64         C569   1.480       .  S
C65         C113   1.480       .  S
C66         C469   1.487       .  S
C67         C553   1.482       .  S
C68         C398   1.487       .  S
C69         C133   1.475       .  S
Zn70         O74   1.977   1_655  S
Zn70         O75   2.043       .  S
Zn70         O79   2.040       .  S
Zn70         O86   2.043       .  S
Zn71         O74   1.973   1_646  S
Zn71         O76   2.027       .  S
Zn71         O78   2.035       .  S
Zn71         O82   2.039       .  S
Zn72         O74   1.975   1_545  S
Zn72         O77   2.035       .  S
Zn72         O80   2.050       .  S
Zn72         O83   2.049       .  S
Zn73         O74   1.972   1_556  S
Zn73         O81   2.046       .  S
Zn73         O84   2.026       .  S
Zn73         O85   2.039       .  S
O75          C87   1.275       .  A
O76          C88   1.274   1_655  A
O77          C89   1.276   1_545  A
O78          C87   1.275   1_546  A
O79          C89   1.276   1_655  A
O80          C88   1.277   1_554  A
O81          C90   1.276   1_556  A
O82          C91   1.275   1_645  A
O83          C90   1.276   1_545  A
O84          C91   1.273       .  A
O85          C92   1.276   1_556  A
O86          C92   1.275   1_655  A
C87         C279   1.476       .  S
C88         C124   1.476       .  S
C89         C562   1.475       .  S
C90         C268   1.482       .  S
C91         C624   1.473       .  S
C92         C163   1.478   1_455  S
C93        C1816   1.479       .  S
C93          C94   1.405       .  A
C93          C98   1.394   1_554  A
C94          C95   1.417   1_554  A
C94          H99   1.083       .  S
C95          C96   1.416       .  A
C96          C97   1.408       .  A
C96         H100   1.083       .  S
C97        C1795   1.482       .  S
C97          C98   1.399       .  A
C98         H101   1.085       .  S
C102       C1747   1.494       .  S
C102        C103   1.412       .  A
C102        C107   1.405       .  A
C103        C104   1.411       .  A
C103        H108   1.082       .  S
C104        C105   1.410   1_554  A
C105        C106   1.406       .  A
C105        H109   1.084       .  S
C106       C1771   1.482       .  S
C106        C107   1.401   1_556  A
C107        H110   1.083       .  S
C111       C1696   1.494       .  S
C111        C112   1.412       .  A
C111        C116   1.403   1_455  A
C112        C113   1.409   1_455  A
C112        H117   1.083       .  S
C113        C114   1.409       .  A
C114        C115   1.406       .  A
C114        H118   1.084       .  S
C115       C1723   1.476       .  S
C115        C116   1.397       .  A
C116        H119   1.084       .  S
C120       C1648   1.477       .  S
C120        C121   1.399   1_554  A
C120        C125   1.408       .  A
C121        C122   1.400   1_655  A
C121        H126   1.085       .  S
C122       C1672   1.476       .  S
C122        C123   1.404       .  A
C123        C124   1.406       .  A
C123        H127   1.084       .  S
C124        C125   1.410   1_456  A
C125        H128   1.084       .  S
C129       C1603   1.488       .  S
C129        C130   1.402       .  A
C129        C134   1.411       .  A
C130        C131   1.397   1_655  A
C130        H135   1.085       .  S
C131       C1624   1.473       .  S
C131        C132   1.401       .  A
C132        C133   1.406   1_455  A
C132        H136   1.084       .  S
C133        C134   1.412       .  A
C134        H137   1.083       .  S
Zn138       O142   1.933       .  S
Zn138       O143   2.072       .  S
Zn138       O147   2.018       .  S
Zn138       O154   2.039       .  S
Zn139       O142   1.851       .  S
Zn139       O144   1.975       .  S
Zn139       O146   1.941       .  S
Zn139       O150   1.972       .  S
Zn140       O142   1.927       .  S
Zn140       O145   2.039       .  S
Zn140       O148   2.064       .  S
Zn140       O151   2.014       .  S
Zn141       O142   1.919       .  S
Zn141       O149   2.040       .  S
Zn141       O152   2.049       .  S
Zn141       O153   2.017       .  S
O143        C155   1.274       .  A
O144        C156   1.261       .  A
O145        C157   1.281       .  A
O146        C155   1.263       .  A
O147        C157   1.280       .  A
O148        C156   1.272       .  A
O149        C158   1.280       .  A
O150        C159   1.270       .  A
O151        C158   1.278       .  A
O152        C159   1.275       .  A
O153        C160   1.279       .  A
O154        C160   1.281       .  A
C155        C671   1.458       .  S
C156        C506   1.458       .  S
C157       C1627   1.483       .  S
C158       C1768   1.483       .  S
C159        C333   1.463       .  S
C160       C1675   1.483       .  S
C161       C1552   1.488       .  S
C161        C162   1.408       .  A
C161        C166   1.402   1_455  A
C162        C163   1.404   1_455  A
C162        H167   1.084       .  S
C163        C164   1.410   1_554  A
C164        C165   1.410       .  A
C164        H168   1.084       .  S
C165       C1576   1.484       .  S
C165        C166   1.401   1_556  A
C166        H169   1.084       .  S
Zn170       O174   1.934       .  S
Zn170       O175   2.060       .  S
Zn170       O179   2.067       .  S
Zn170       O186   2.036       .  S
Zn171       O174   1.926       .  S
Zn171       O176   2.058       .  S
Zn171       O178   2.027       .  S
Zn171       O182   2.029       .  S
Zn172       O174   1.853       .  S
Zn172       O177   1.964       .  S
Zn172       O180   1.959       .  S
Zn172       O183   1.979       .  S
Zn173       O174   1.924       .  S
Zn173       O181   2.071       .  S
Zn173       O184   2.027       .  S
Zn173       O185   2.060       .  S
O175        C187   1.283       .  A
O176        C188   1.274       .  A
O177        C189   1.264       .  A
O178        C187   1.280       .  A
O179        C189   1.274       .  A
O180        C188   1.265       .  A
O181        C190   1.273       .  A
O182        C191   1.280       .  A
O183        C190   1.267       .  A
O184        C191   1.280       .  A
O185        C192   1.283       .  A
O186        C192   1.281       .  A
C187       C1579   1.488       .  S
C188        C306   1.464       .  S
C189        C650   1.455       .  S
C190        C528   1.465       .  S
C191       C1792   1.479       .  S
C192       C1600   1.488       .  S
Zn193       O197   1.859       .  S
Zn193       O198   1.984       .  S
Zn193       O202   1.958       .  S
Zn193       O209   1.975       .  S
Zn194       O197   1.928       .  S
Zn194       O199   2.019       .  S
Zn194       O201   2.066       .  S
Zn194       O205   2.047       .  S
Zn195       O197   1.935       .  S
Zn195       O200   2.057       .  S
Zn195       O203   2.053       .  S
Zn195       O206   2.046       .  S
Zn196       O197   1.929       .  S
Zn196       O204   2.042       .  S
Zn196       O207   2.024       .  S
Zn196       O208   2.062       .  S
O198        C210   1.266       .  A
O199        C211   1.279       .  A
O200        C212   1.274       .  A
O201        C210   1.273       .  A
O202        C212   1.267       .  A
O203        C211   1.283       .  A
O204        C213   1.282       .  A
O205        C214   1.282       .  A
O206        C213   1.282       .  A
O207        C214   1.280       .  A
O208        C215   1.273       .  A
O209        C215   1.265       .  A
C210        C619   1.462       .  S
C211       C1651   1.489       .  S
C212        C381   1.463       .  S
C213       C1819   1.493       .  S
C214       C1720   1.489       .  S
C215        C423   1.458       .  S
Zn216       O220   1.955       .  S
Zn216       O221   2.017       .  S
Zn216       O225   1.974       .  S
Zn216       O232   2.021       .  S
Zn217       O220   1.947       .  S
Zn217       O222   1.978       .  S
Zn217       O224   1.983       .  S
Zn217       O228   2.019       .  S
Zn218       O220   1.986       .  S
Zn218       O223   2.072       .  S
Zn218       O226   2.080       .  S
Zn218       O229   2.077       .  S
Zn219       O220   1.940       .  S
Zn219       O227   1.958       .  S
Zn219       O230   1.987       .  S
Zn219       O231   1.998       .  S
O221        C233   1.272       .  A
O222        C234   1.271       .  A
O223        C235   1.281       .  A
O224        C233   1.268       .  A
O225        C235   1.271       .  A
O226        C234   1.282       .  A
O227        C236   1.270       .  A
O228        C237   1.272       .  A
O229        C236   1.281       .  A
O230        C237   1.267       .  A
O231        C238   1.268       .  A
O232        C238   1.270       .  A
C233        C461   1.461       .  S
C234       C1744   1.485       .  S
C235       C1699   1.480       .  S
C236       C1555   1.476       .  S
C237        C358   1.465       .  S
C238        C593   1.460       .  S
C239       C1507   1.483       .  S
C239        C240   1.406       .  A
C239        C244   1.401   1_554  A
C240        C241   1.414   1_554  A
C240        H245   1.083       .  S
C241        C242   1.412       .  A
C242        C243   1.404       .  A
C242        H246   1.084       .  S
C243       C1531   1.480       .  S
C243        C244   1.401       .  A
C244        H247   1.085       .  S
C248       C1459   1.477       .  S
C248        C249   1.401       .  A
C248        C253   1.396   1_556  A
C249        C250   1.412   1_556  A
C249        H254   1.083       .  S
C250        C251   1.418       .  A
C251        C252   1.413       .  A
C251        H255   1.083       .  S
C252       C1483   1.490       .  S
C252        C253   1.400       .  A
C253        H256   1.085       .  S
C257       C1411   1.479       .  S
C257        C258   1.398       .  A
C257        C262   1.406       .  A
C258        C259   1.401   1_545  A
C258        H263   1.084       .  S
C259       C1432   1.490       .  S
C259        C260   1.410       .  A
C260        C261   1.410   1_565  A
C260        H264   1.084       .  S
C261        C262   1.409       .  A
C262        H265   1.084       .  S
C266       C1363   1.493       .  S
C266        C267   1.413       .  A
C266        C271   1.403       .  A
C267        C268   1.411       .  A
C267        H272   1.083       .  S
C268        C269   1.408   1_564  A
C269        C270   1.406       .  A
C269        H273   1.084       .  S
C270       C1387   1.484       .  S
C270        C271   1.401   1_546  A
C271        H274   1.084       .  S
C275       C1312   1.480       .  S
C275        C276   1.397   1_544  A
C275        C280   1.409       .  A
C276        C277   1.397       .  A
C276        H281   1.085       .  S
C277       C1336   1.475       .  S
C277        C278   1.402       .  A
C278        C279   1.407   1_556  A
C278        H282   1.084       .  S
C279        C280   1.412   1_565  A
C280        H283   1.083       .  S
Zn284       O288   1.932       .  S
Zn284       O289   2.036       .  S
Zn284       O293   2.019       .  S
Zn284       O300   2.055       .  S
Zn285       O288   1.922       .  S
Zn285       O290   2.054       .  S
Zn285       O292   2.015       .  S
Zn285       O296   2.058       .  S
Zn286       O288   1.922       .  S
Zn286       O291   2.030       .  S
Zn286       O294   2.022       .  S
Zn286       O297   2.052       .  S
Zn287       O288   1.851       .  S
Zn287       O295   1.971       .  S
Zn287       O298   1.971       .  S
Zn287       O299   1.965       .  S
O289        C301   1.281       .  A
O290        C302   1.282       .  A
O291        C303   1.281       .  A
O292        C301   1.279       .  A
O293        C303   1.279       .  A
O294        C302   1.279       .  A
O295        C304   1.264       .  A
O296        C305   1.273       .  A
O297        C304   1.272       .  A
O298        C305   1.265       .  A
O299        C306   1.267       .  A
O300        C306   1.273       .  A
C301       C1456   1.478       .  S
C302       C1288   1.488       .  S
C303       C1339   1.480       .  S
C304        C653   1.455       .  S
C305        C526   1.455       .  S
C307       C1291   1.485       .  S
C307        C308   1.410       .  A
C307        C312   1.401       .  A
C308        C309   1.411   1_565  A
C308        H313   1.084       .  S
C309        C310   1.407       .  A
C310        C311   1.406       .  A
C310        H314   1.084       .  S
C311       C1264   1.479       .  S
C311        C312   1.400   1_545  A
C312        H315   1.085       .  S
Zn316       O320   1.918       .  S
Zn316       O321   2.051       .  S
Zn316       O325   2.034       .  S
Zn316       O332   2.024       .  S
Zn317       O320   1.845       .  S
Zn317       O322   1.974       .  S
Zn317       O324   1.969       .  S
Zn317       O328   1.949       .  S
Zn318       O320   1.921       .  S
Zn318       O323   2.014       .  S
Zn318       O326   2.055       .  S
Zn318       O329   2.031       .  S
Zn319       O320   1.937       .  S
Zn319       O327   2.039       .  S
Zn319       O330   2.090       .  S
Zn319       O331   2.046       .  S
O321        C333   1.274       .  A
O322        C334   1.264       .  A
O323        C335   1.278       .  A
O324        C333   1.267       .  A
O325        C335   1.280       .  A
O326        C334   1.271       .  A
O327        C336   1.282       .  A
O328        C337   1.265       .  A
O329        C336   1.281       .  A
O330        C337   1.277       .  A
O331        C338   1.282       .  A
O332        C338   1.280       .  A
C334        C505   1.455       .  S
C335       C1528   1.482       .  S
C336       C1267   1.486       .  S
C337        C672   1.470       .  S
C338       C1384   1.481       .  S
Zn339       O343   1.941       .  S
Zn339       O344   2.016       .  S
Zn339       O348   2.013       .  S
Zn339       O355   1.983       .  S
Zn340       O343   1.953       .  S
Zn340       O345   2.004       .  S
Zn340       O347   1.998       .  S
Zn340       O351   1.957       .  S
Zn341       O343   1.945       .  S
Zn341       O346   2.003       .  S
Zn341       O349   1.990       .  S
Zn341       O352   1.968       .  S
Zn342       O343   1.986       .  S
Zn342       O350   2.093       .  S
Zn342       O353   2.092       .  S
Zn342       O354   2.091       .  S
O344        C356   1.271       .  A
O345        C357   1.268       .  A
O346        C358   1.270       .  A
O347        C356   1.268       .  A
O348        C358   1.273       .  A
O349        C357   1.269       .  A
O350        C359   1.283       .  A
O351        C360   1.270       .  A
O352        C359   1.269       .  A
O353        C360   1.284       .  A
O354        C361   1.283       .  A
O355        C361   1.272       .  A
C356        C594   1.457       .  S
C357        C466   1.462       .  S
C359       C1480   1.482       .  S
C360       C1435   1.477       .  S
C361       C1360   1.483       .  S
Zn362       O366   1.932       .  S
Zn362       O367   2.052       .  S
Zn362       O371   2.057       .  S
Zn362       O378   2.043       .  S
Zn363       O366   1.920       .  S
Zn363       O368   2.067       .  S
Zn363       O370   2.007       .  S
Zn363       O374   2.035       .  S
Zn364       O366   1.851       .  S
Zn364       O369   1.959       .  S
Zn364       O372   1.984       .  S
Zn364       O375   1.962       .  S
Zn365       O366   1.932       .  S
Zn365       O373   2.060       .  S
Zn365       O376   2.031       .  S
Zn365       O377   2.046       .  S
O367        C379   1.282       .  A
O368        C380   1.272       .  A
O369        C381   1.267       .  A
O370        C379   1.278       .  A
O371        C381   1.275       .  A
O372        C380   1.266       .  A
O373        C382   1.273       .  A
O374        C383   1.280       .  A
O375        C382   1.264       .  A
O376        C383   1.281       .  A
O377        C384   1.283       .  A
O378        C384   1.281       .  A
C379       C1315   1.483       .  S
C380        C620   1.464       .  S
C382        C425   1.455       .  S
C383       C1408   1.486       .  S
C384       C1504   1.488       .  S
C385       C1243   1.483       .  S
C385        C386   1.395       .  A
C385        C390   1.406       .  A
C386        C387   1.397       .  A
C386        H391   1.085       .  S
C387       C1216   1.489       .  S
C387        C388   1.415       .  A
C388        C389   1.422       .  A
C388        H392   1.083       .  S
C389        C390   1.415       .  A
C390        H393   1.083       .  S
C394       C1168   1.498       .  S
C394        C395   1.401       .  A
C394        C399   1.414       .  A
C395        C396   1.401       .  A
C395        H400   1.083       .  S
C396       C1192   1.495       .  S
C396        C397   1.411       .  A
C397        C398   1.409       .  A
C397        H401   1.083       .  S
C398        C399   1.415       .  A
C399        H402   1.083       .  S
Zn403       O407   1.950       .  S
Zn403       O408   1.949       .  S
Zn403       O412   2.002       .  S
Zn403       O419   2.012       .  S
Zn404       O407   1.996       .  S
Zn404       O409   2.093       .  S
Zn404       O411   2.116       .  S
Zn404       O415   2.098       .  S
Zn405       O407   1.933       .  S
Zn405       O410   1.985       .  S
Zn405       O413   1.943       .  S
Zn405       O416   2.002       .  S
Zn406       O407   1.943       .  S
Zn406       O414   2.013       .  S
Zn406       O417   1.966       .  S
Zn406       O418   1.993       .  S
O408        C420   1.268       .  A
O409        C421   1.282       .  A
O410        C422   1.268       .  A
O411        C420   1.285       .  A
O412        C422   1.269       .  A
O413        C421   1.267       .  A
O414        C423   1.269       .  A
O415        C424   1.285       .  A
O416        C423   1.268       .  A
O417        C424   1.272       .  A
O418        C425   1.267       .  A
O419        C425   1.269       .  A
C420       C1147   1.489       .  S
C421       C1195   1.480       .  S
C422        C617   1.458       .  S
C424       C1240   1.476       .  S
C426       C1144   1.497       .  S
C426        C427   1.415       .  A
C426        C431   1.404       .  A
C427        C428   1.411       .  A
C427        H432   1.083       .  S
C428        C429   1.408       .  A
C429        C430   1.409       .  A
C429        H433   1.084       .  S
C430       C1120   1.488       .  S
C430        C431   1.403       .  A
C431        H434   1.083       .  S
C435       C1072   1.482       .  S
C435        C436   1.396       .  A
C435        C440   1.408       .  A
C436        C437   1.397       .  A
C436        H441   1.084       .  S
C437       C1096   1.485       .  S
C437        C438   1.411       .  A
C438        C439   1.414       .  A
C438        H442   1.084       .  S
C439        C440   1.411       .  A
C440        H443   1.084       .  S
Zn444       O448   1.930       .  S
Zn444       O449   1.988       .  S
Zn444       O453   1.951       .  S
Zn444       O460   1.975       .  S
Zn445       O448   1.944       .  S
Zn445       O450   1.958       .  S
Zn445       O452   1.999       .  S
Zn445       O456   1.992       .  S
Zn446       O448   1.996       .  S
Zn446       O451   2.117       .  S
Zn446       O454   2.108       .  S
Zn446       O457   2.119       .  S
Zn447       O448   1.956       .  S
Zn447       O455   1.943       .  S
Zn447       O458   2.014       .  S
Zn447       O459   2.023       .  S
O449        C461   1.269       .  A
O450        C462   1.269       .  A
O451        C463   1.285       .  A
O452        C461   1.268       .  A
O453        C463   1.267       .  A
O454        C462   1.286       .  A
O455        C464   1.268       .  A
O456        C465   1.267       .  A
O457        C464   1.287       .  A
O458        C465   1.268       .  A
O459        C466   1.271       .  A
O460        C466   1.267       .  A
C462       C1048   1.477       .  S
C463       C1219   1.482       .  S
C464       C1099   1.481       .  S
C465        C597   1.456       .  S
C467       C1051   1.483       .  S
C467        C468   1.410       .  A
C467        C472   1.396       .  A
C468        C469   1.414       .  A
C468        H473   1.083       .  S
C469        C470   1.414       .  A
C470        C471   1.411       .  A
C470        H474   1.083       .  S
C471       C1024   1.485       .  S
C471        C472   1.397       .  A
C472        H475   1.085       .  S
C476        C976   1.498       .  S
C476        C477   1.400       .  A
C476        C481   1.413       .  A
C477        C478   1.401       .  A
C477        H482   1.083       .  S
C478       C1000   1.499       .  S
C478        C479   1.414       .  A
C479        C480   1.420       .  A
C479        H483   1.083       .  S
C480        C481   1.419       .  A
C481        H484   1.083       .  S
Zn485       O489   1.985       .  S
Zn485       O490   2.102       .  S
Zn485       O494   2.091       .  S
Zn485       O501   2.104       .  S
Zn486       O489   1.948       .  S
Zn486       O491   2.012       .  S
Zn486       O493   1.963       .  S
Zn486       O497   2.001       .  S
Zn487       O489   1.943       .  S
Zn487       O492   1.963       .  S
Zn487       O495   1.991       .  S
Zn487       O498   1.992       .  S
Zn488       O489   1.944       .  S
Zn488       O496   2.016       .  S
Zn488       O499   2.019       .  S
Zn488       O500   1.972       .  S
O490        C502   1.284       .  A
O491        C503   1.268       .  A
O492        C504   1.270       .  A
O493        C502   1.269       .  A
O494        C504   1.284       .  A
O495        C503   1.266       .  A
O496        C505   1.272       .  A
O497        C506   1.271       .  A
O498        C505   1.267       .  A
O499        C506   1.272       .  A
O500        C507   1.270       .  A
O501        C507   1.285       .  A
C502       C1027   1.480       .  S
C503        C675   1.456       .  S
C504       C1123   1.477       .  S
C507       C1003   1.487       .  S
Zn508       O512   1.990       .  S
Zn508       O513   2.100       .  S
Zn508       O517   2.105       .  S
Zn508       O524   2.109       .  S
Zn509       O512   1.941       .  S
Zn509       O514   1.990       .  S
Zn509       O516   1.959       .  S
Zn509       O520   1.989       .  S
Zn510       O512   1.957       .  S
Zn510       O515   1.990       .  S
Zn510       O518   2.021       .  S
Zn510       O521   2.055       .  S
Zn511       O512   1.941       .  S
Zn511       O519   1.979       .  S
Zn511       O522   1.997       .  S
Zn511       O523   1.951       .  S
O513        C525   1.284       .  A
O514        C526   1.268       .  A
O515        C527   1.273       .  A
O516        C525   1.269       .  A
O517        C527   1.286       .  A
O518        C526   1.272       .  A
O519        C528   1.266       .  A
O520        C529   1.267       .  A
O521        C528   1.275       .  A
O522        C529   1.268       .  A
O523        C530   1.268       .  A
O524        C530   1.285       .  A
C525       C1075   1.476       .  S
C527        C979   1.486       .  S
C529        C651   1.460       .  S
C530       C1171   1.482       .  S
C531        C952   1.483   1_545  S
C531        C532   1.410   1_545  A
C531        C536   1.399       .  A
C532        C533   1.412   1_565  A
C532        H537   1.084       .  S
C533        C534   1.411       .  A
C534        C535   1.408       .  A
C534        H538   1.084       .  S
C535        C931   1.480       .  S
C535        C536   1.399       .  A
C536        H539   1.085       .  S
C540        C880   1.495       .  S
C540        C541   1.413       .  A
C540        C545   1.405   1_565  A
C541        C542   1.410   1_565  A
C541        H546   1.083       .  S
C542        C543   1.409       .  A
C543        C544   1.412       .  A
C543        H547   1.083       .  S
C544        C907   1.495       .  S
C544        C545   1.404       .  A
C545        H548   1.083       .  S
C549        C835   1.481       .  S
C549        C550   1.400   1_455  A
C549        C554   1.407       .  A
C550        C551   1.404       .  A
C550        H555   1.084       .  S
C551        C859   1.494       .  S
C551        C552   1.412       .  A
C552        C553   1.409       .  A
C552        H556   1.083       .  S
C553        C554   1.410   1_655  A
C554        H557   1.084       .  S
C558        C808   1.477       .  S
C558        C559   1.398   1_565  A
C558        C563   1.406       .  A
C559        C560   1.401   1_455  A
C559        H564   1.084       .  S
C560        C784   1.489       .  S
C560        C561   1.408       .  A
C561        C562   1.407   1_645  A
C561        H565   1.083       .  S
C562        C563   1.409       .  A
C563        H566   1.084       .  S
C567        C736   1.477       .  S
C567        C568   1.405       .  A
C567        C572   1.397   1_455  A
C568        C569   1.409   1_455  A
C568        H573   1.084       .  S
C569        C570   1.412       .  A
C570        C571   1.412       .  A
C570        H574   1.083       .  S
C571        C763   1.492       .  S
C571        C572   1.402       .  A
C572        H575   1.084   1_655  S
Zn576       O580   1.927       .  S
Zn576       O581   2.058       .  S
Zn576       O585   2.044       .  S
Zn576       O592   2.005       .  S
Zn577       O580   1.865       .  S
Zn577       O582   1.976       .  S
Zn577       O584   1.980       .  S
Zn577       O588   1.969       .  S
Zn578       O580   1.929       .  S
Zn578       O583   2.011       .  S
Zn578       O586   2.058       .  S
Zn578       O589   2.030       .  S
Zn579       O580   1.947       .  S
Zn579       O587   2.053       .  S
Zn579       O590   2.059       .  S
Zn579       O591   2.073       .  S
O581        C593   1.273       .  A
O582        C594   1.266       .  A
O583        C595   1.277       .  A
O584        C593   1.266       .  A
O585        C595   1.281       .  A
O586        C594   1.272       .  A
O587        C596   1.283       .  A
O588        C597   1.266       .  A
O589        C596   1.280       .  A
O590        C597   1.274       .  A
O591        C598   1.284       .  A
O592        C598   1.278       .  A
C595        C811   1.485       .  S
C596        C955   1.490       .  S
C598        C739   1.490       .  S
Zn599       O603   1.986       .  S
Zn599       O604   2.090       .  S
Zn599       O608   2.085       .  S
Zn599       O615   2.080       .  S
Zn600       O603   1.947       .  S
Zn600       O605   2.001       .  S
Zn600       O607   1.978       .  S
Zn600       O611   1.985       .  S
Zn601       O603   1.941       .  S
Zn601       O606   1.967       .  S
Zn601       O609   1.975       .  S
Zn601       O612   2.000       .  S
Zn602       O603   1.957       .  S
Zn602       O610   2.030       .  S
Zn602       O613   2.044       .  S
Zn602       O614   1.978       .  S
O604        C616   1.282       .  A
O605        C617   1.269       .  A
O606        C618   1.270       .  A
O607        C616   1.271       .  A
O608        C618   1.281       .  A
O609        C617   1.267       .  A
O610        C619   1.273       .  A
O611        C620   1.268       .  A
O612        C619   1.269       .  A
O613        C620   1.274       .  A
O614        C621   1.273       .  A
O615        C621   1.283       .  A
C616        C904   1.483       .  S
C618        C856   1.481       .  S
C621        C787   1.480       .  S
C622        C712   1.485   1_455  S
C622        C623   1.408   1_455  A
C622        C627   1.401       .  A
C623        C624   1.406   1_655  A
C623        H628   1.084       .  S
C624        C625   1.407   1_565  A
C625        C626   1.406   1_545  A
C625        H629   1.084       .  S
C626        C688   1.478   1_565  S
C626        C627   1.398       .  A
C627        H630   1.084       .  S
Zn631       O635   1.943       .  S
Zn631       O636   1.955       .  S
Zn631       O640   2.006       .  S
Zn631       O647   1.991       .  S
Zn632       O635   1.987       .  S
Zn632       O637   2.092       .  S
Zn632       O639   2.084       .  S
Zn632       O643   2.102       .  S
Zn633       O635   1.940       .  S
Zn633       O638   2.005       .  S
Zn633       O641   1.964       .  S
Zn633       O644   2.004       .  S
Zn634       O635   1.946       .  S
Zn634       O642   1.998       .  S
Zn634       O645   1.963       .  S
Zn634       O646   2.012       .  S
O636        C648   1.270       .  A
O637        C649   1.283       .  A
O638        C650   1.269       .  A
O639        C648   1.283       .  A
O640        C650   1.268       .  A
O641        C649   1.269       .  A
O642        C651   1.271       .  A
O643        C652   1.283       .  A
O644        C651   1.271       .  A
O645        C652   1.269       .  A
O646        C653   1.268       .  A
O647        C653   1.267       .  A
C648        C715   1.472       .  S
C649        C760   1.482       .  S
C652        C883   1.486       .  S
Zn654       O658   1.936       .  S
Zn654       O659   2.060       .  S
Zn654       O663   2.028       .  S
Zn654       O670   2.056       .  S
Zn655       O658   1.847       .  S
Zn655       O660   1.955       .  S
Zn655       O662   1.961       .  S
Zn655       O666   1.978       .  S
Zn656       O658   1.942       .  S
Zn656       O661   2.042       .  S
Zn656       O664   2.082       .  S
Zn656       O667   2.039       .  S
Zn657       O658   1.925       .  S
Zn657       O665   2.033       .  S
Zn657       O668   2.050       .  S
Zn657       O669   2.013       .  S
O659        C671   1.272       .  A
O660        C672   1.265       .  A
O661        C673   1.282       .  A
O662        C671   1.267       .  A
O663        C673   1.282       .  A
O664        C672   1.275       .  A
O665        C674   1.280       .  A
O666        C675   1.266       .  A
O667        C674   1.281       .  A
O668        C675   1.272       .  A
O669        C676   1.278       .  A
O670        C676   1.282       .  A
C673        C691   1.483       .  S
C674        C928   1.489       .  S
C676        C832   1.488       .  S
C677        C678   1.400       .  A
C677        C682   1.404       .  A
C677        H693   1.083       .  S
C678        C679   1.404       .  A
C678        H694   1.084   1_545  S
C679        C689   1.403       .  A
C679        C680   1.411       .  A
C680        C686   1.413       .  A
C680        C681   1.413       .  A
C681        C683   1.410       .  A
C681        C682   1.413       .  A
C682        C690   1.407       .  A
C683        C692   1.401       .  A
C683        C684   1.404       .  A
C684        C685   1.398       .  A
C684        H695   1.084       .  S
C685        C686   1.403       .  A
C685        H696   1.083       .  S
C686        C687   1.403       .  A
C687        C688   1.403       .  A
C687        H697   1.084       .  S
C688        C689   1.407       .  A
C689        H698   1.085   1_545  S
C690        C691   1.408       .  A
C690        H699   1.084       .  S
C691        C692   1.408       .  A
C692        H700   1.084       .  S
C701        C702   1.397       .  A
C701        C706   1.403       .  A
C701        H717   1.084       .  S
C702        C703   1.402       .  A
C702        H718   1.084       .  S
C703        C713   1.402       .  A
C703        C704   1.413       .  A
C704        C710   1.409       .  A
C704        C705   1.411       .  A
C705        C707   1.415       .  A
C705        C706   1.409       .  A
C706        C714   1.398       .  A
C707        C716   1.407       .  A
C707        C708   1.403       .  A
C708        C709   1.400       .  A
C708        H719   1.084       .  S
C709        C710   1.404       .  A
C709        H720   1.083   1_655  S
C710        C711   1.402       .  A
C711        C712   1.409       .  A
C711        H721   1.084   1_655  S
C712        C713   1.405       .  A
C713        H722   1.084       .  S
C714        C715   1.406       .  A
C714        H723   1.085       .  S
C715        C716   1.403       .  A
C716        H724   1.084       .  S
C725        C726   1.403       .  A
C725        C730   1.405       .  A
C725        H741   1.083       .  S
C726        C727   1.405       .  A
C726        H742   1.084       .  S
C727        C737   1.408       .  A
C727        C728   1.412       .  A
C728        C734   1.412       .  A
C728        C729   1.415       .  A
C729        C731   1.410       .  A
C729        C730   1.413       .  A
C730        C738   1.411       .  A
C731        C740   1.401       .  A
C731        C732   1.404       .  A
C732        C733   1.398       .  A
C732        H743   1.084       .  S
C733        C734   1.402       .  A
C733        H744   1.083       .  S
C734        C735   1.402       .  A
C735        C736   1.403       .  A
C735        H745   1.085       .  S
C736        C737   1.406       .  A
C737        H746   1.084       .  S
C738        C739   1.411       .  A
C738        H747   1.084       .  S
C739        C740   1.410       .  A
C740        H748   1.084       .  S
C749        C750   1.399       .  A
C749        C754   1.403       .  A
C749        H765   1.084       .  S
C750        C751   1.405       .  A
C750        H766   1.084       .  S
C751        C761   1.401       .  A
C751        C752   1.408       .  A
C752        C758   1.415       .  A
C752        C753   1.414       .  A
C753        C755   1.408       .  A
C753        C754   1.414       .  A
C754        C762   1.407       .  A
C755        C764   1.403       .  A
C755        C756   1.405       .  A
C756        C757   1.401       .  A
C756        H767   1.083       .  S
C757        C758   1.403       .  A
C757        H768   1.084       .  S
C758        C759   1.410       .  A
C759        C760   1.405       .  A
C759        H769   1.084       .  S
C760        C761   1.410       .  A
C761        H770   1.085       .  S
C762        C763   1.407       .  A
C762        H771   1.084       .  S
C763        C764   1.411       .  A
C764        H772   1.084       .  S
C773        C774   1.399       .  A
C773        C778   1.404       .  A
C773        H789   1.084       .  S
C774        C775   1.403       .  A
C774        H790   1.084       .  S
C775        C785   1.405       .  A
C775        C776   1.413       .  A
C776        C782   1.408       .  A
C776        C777   1.412       .  A
C777        C779   1.415       .  A
C777        C778   1.409       .  A
C778        C786   1.400       .  A
C779        C788   1.407       .  A
C779        C780   1.403       .  A
C780        C781   1.399       .  A
C780        H791   1.083       .  S
C781        C782   1.404       .  A
C781        H792   1.084       .  S
C782        C783   1.400       .  A
C783        C784   1.410       .  A
C783        H793   1.084       .  S
C784        C785   1.407       .  A
C785        H794   1.084       .  S
C786        C787   1.409       .  A
C786        H795   1.085       .  S
C787        C788   1.404       .  A
C788        H796   1.084       .  S
C797        C798   1.401       .  A
C797        C802   1.404       .  A
C797        H813   1.084       .  S
C798        C799   1.404       .  A
C798        H814   1.083       .  S
C799        C809   1.406       .  A
C799        C800   1.413       .  A
C800        C806   1.411       .  A
C800        C801   1.413       .  A
C801        C803   1.411       .  A
C801        C802   1.411       .  A
C802        C810   1.406       .  A
C803        C812   1.403       .  A
C803        C804   1.404       .  A
C804        C805   1.398       .  A
C804        H815   1.083       .  S
C805        C806   1.403       .  A
C805        H816   1.084       .  S
C806        C807   1.402       .  A
C807        C808   1.405       .  A
C807        H817   1.085       .  S
C808        C809   1.405       .  A
C809        H818   1.084       .  S
C810        C811   1.409       .  A
C810        H819   1.084       .  S
C811        C812   1.409       .  A
C812        H820   1.084       .  S
C821        C822   1.402       .  A
C821        C826   1.404       .  A
C821        H837   1.083       .  S
C822        C823   1.405       .  A
C822        H838   1.083       .  S
C823        C833   1.409       .  A
C823        C824   1.412       .  A
C824        C830   1.411       .  A
C824        C825   1.415       .  A
C825        C827   1.412       .  A
C825        C826   1.413       .  A
C826        C834   1.408       .  A
C827        C836   1.403       .  A
C827        C828   1.403       .  A
C828        C829   1.399       .  A
C828        H839   1.084       .  S
C829        C830   1.404       .  A
C829        H840   1.083       .  S
C830        C831   1.403       .  A
C831        C832   1.409       .  A
C831        H841   1.084       .  S
C832        C833   1.410       .  A
C833        H842   1.084       .  S
C834        C835   1.406       .  A
C834        H843   1.084       .  S
C835        C836   1.405       .  A
C836        H844   1.085       .  S
C845        C846   1.401       .  A
C845        C850   1.405       .  A
C845        H861   1.083       .  S
C846        C847   1.404       .  A
C846        H862   1.083       .  S
C847        C857   1.410       .  A
C847        C848   1.415       .  A
C848        C854   1.409       .  A
C848        C849   1.414       .  A
C849        C851   1.413       .  A
C849        C850   1.409       .  A
C850        C858   1.404       .  A
C851        C860   1.405       .  A
C851        C852   1.403       .  A
C852        C853   1.398       .  A
C852        H863   1.084       .  S
C853        C854   1.404       .  A
C853        H864   1.084       .  S
C854        C855   1.399       .  A
C855        C856   1.409       .  A
C855        H865   1.085       .  S
C856        C857   1.405       .  A
C857        H866   1.084       .  S
C858        C859   1.412       .  A
C858        H867   1.084       .  S
C859        C860   1.407       .  A
C860        H868   1.084       .  S
C869        C870   1.398       .  A
C869        C874   1.404       .  A
C869        H885   1.083       .  S
C870        C871   1.403       .  A
C870        H886   1.084       .  S
C871        C881   1.406       .  A
C871        C872   1.414       .  A
C872        C878   1.409       .  A
C872        C873   1.416       .  A
C873        C875   1.415       .  A
C873        C874   1.408       .  A
C874        C882   1.400       .  A
C875        C884   1.413       .  A
C875        C876   1.404       .  A
C876        C877   1.403       .  A
C876        H887   1.084       .  S
C877        C878   1.406       .  A
C877        H888   1.083       .  S
C878        C879   1.407       .  A
C879        C880   1.413       .  A
C879        H889   1.084       .  S
C880        C881   1.406       .  A
C881        H890   1.084       .  S
C882        C883   1.410       .  A
C882        H891   1.084       .  S
C883        C884   1.407       .  A
C884        H892   1.084       .  S
C893        C894   1.398       .  A
C893        C898   1.403       .  A
C893        H909   1.084       .  S
C894        C895   1.404       .  A
C894        H910   1.084       .  S
C895        C905   1.400       .  A
C895        C896   1.409       .  A
C896        C902   1.415       .  A
C896        C897   1.415       .  A
C897        C899   1.409       .  A
C897        C898   1.413       .  A
C898        C906   1.405       .  A
C899        C908   1.407       .  A
C899        C900   1.406       .  A
C900        C901   1.403       .  A
C900        H911   1.083       .  S
C901        C902   1.405       .  A
C901        H912   1.084       .  S
C902        C903   1.412       .  A
C903        C904   1.407       .  A
C903        H913   1.084       .  S
C904        C905   1.408       .  A
C905        H914   1.085       .  S
C906        C907   1.406       .  A
C906        H915   1.084       .  S
C907        C908   1.413       .  A
C908        H916   1.084       .  S
C917        C918   1.401       .  A
C917        C922   1.404       .  A
C917        H933   1.084       .  S
C918        C919   1.404       .  A
C918        H934   1.083       .  S
C919        C929   1.406       .  A
C919        C920   1.411       .  A
C920        C926   1.411       .  A
C920        C921   1.415       .  A
C921        C923   1.412       .  A
C921        C922   1.412       .  A
C922        C930   1.406       .  A
C923        C932   1.405       .  A
C923        C924   1.403       .  A
C924        C925   1.400       .  A
C924        H935   1.084       .  S
C925        C926   1.404       .  A
C925        H936   1.083       .  S
C926        C927   1.405       .  A
C927        C928   1.410       .  A
C927        H937   1.084       .  S
C928        C929   1.410       .  A
C929        H938   1.084       .  S
C930        C931   1.407       .  A
C930        H939   1.084       .  S
C931        C932   1.404       .  A
C932        H940   1.084       .  S
C941        C942   1.401       .  A
C941        C946   1.405       .  A
C941        H957   1.083       .  S
C942        C943   1.404       .  A
C942        H958   1.084   1_565  S
C943        C953   1.406       .  A
C943        C944   1.412       .  A
C944        C950   1.413       .  A
C944        C945   1.416       .  A
C945        C947   1.411       .  A
C945        C946   1.411       .  A
C946        C954   1.407       .  A
C947        C956   1.407       .  A
C947        C948   1.404       .  A
C948        C949   1.401       .  A
C948        H959   1.083       .  S
C949        C950   1.404       .  A
C949        H960   1.084       .  S
C950        C951   1.407       .  A
C951        C952   1.405       .  A
C951        H961   1.084       .  S
C952        C953   1.407       .  A
C953        H962   1.084   1_565  S
C954        C955   1.410       .  A
C954        H963   1.084       .  S
C955        C956   1.409       .  A
C956        H964   1.084       .  S
C965        C966   1.401       .  A
C965        C970   1.405       .  A
C965        H981   1.083       .  S
C966        C967   1.404       .  A
C966        H982   1.084       .  S
C967        C977   1.411       .  A
C967        C968   1.414       .  A
C968        C974   1.408       .  A
C968        C969   1.417       .  A
C969        C971   1.415       .  A
C969        C970   1.409       .  A
C970        C978   1.405       .  A
C971        C980   1.412       .  A
C971        C972   1.404       .  A
C972        C973   1.402       .  A
C972        H983   1.084       .  S
C973        C974   1.405       .  A
C973        H984   1.083       .  S
C974        C975   1.405       .  A
C975        C976   1.413       .  A
C975        H985   1.084       .  S
C976        C977   1.408       .  A
C977        H986   1.084       .  S
C978        C979   1.410       .  A
C978        H987   1.084       .  S
C979        C980   1.406       .  A
C980        H988   1.084       .  S
C989        C990   1.401       .  A
C989        C994   1.405       .  A
C989       H1005   1.084       .  S
C990        C991   1.404       .  A
C990       H1006   1.083       .  S
C991       C1001   1.411       .  A
C991        C992   1.415       .  A
C992        C998   1.408       .  A
C992        C993   1.417       .  A
C993        C995   1.415       .  A
C993        C994   1.408       .  A
C994       C1002   1.403       .  A
C995       C1004   1.412       .  A
C995        C996   1.403       .  A
C996        C997   1.401       .  A
C996       H1007   1.084       .  S
C997        C998   1.405       .  A
C997       H1008   1.083       .  S
C998        C999   1.404       .  A
C999       C1000   1.413       .  A
C999       H1009   1.084       .  S
C1000      C1001   1.408       .  A
C1001      H1010   1.084       .  S
C1002      C1003   1.411       .  A
C1002      H1011   1.085       .  S
C1003      C1004   1.406       .  A
C1004      H1012   1.084       .  S
C1013      C1014   1.400       .  A
C1013      C1018   1.405       .  A
C1013      H1029   1.083       .  S
C1014      C1015   1.403       .  A
C1014      H1030   1.084       .  S
C1015      C1025   1.409       .  A
C1015      C1016   1.415       .  A
C1016      C1022   1.409       .  A
C1016      C1017   1.415       .  A
C1017      C1019   1.415       .  A
C1017      C1018   1.408       .  A
C1018      C1026   1.402       .  A
C1019      C1028   1.410       .  A
C1019      C1020   1.403       .  A
C1020      C1021   1.400       .  A
C1020      H1031   1.084       .  S
C1021      C1022   1.405       .  A
C1021      H1032   1.083       .  S
C1022      C1023   1.402       .  A
C1023      C1024   1.409       .  A
C1023      H1033   1.084       .  S
C1024      C1025   1.405       .  A
C1025      H1034   1.084       .  S
C1026      C1027   1.410       .  A
C1026      H1035   1.085       .  S
C1027      C1028   1.404       .  A
C1028      H1036   1.084       .  S
C1037      C1038   1.399       .  A
C1037      C1042   1.403       .  A
C1037      H1053   1.083       .  S
C1038      C1039   1.404       .  A
C1038      H1054   1.084       .  S
C1039      C1049   1.402       .  A
C1039      C1040   1.409       .  A
C1040      C1046   1.415       .  A
C1040      C1041   1.415       .  A
C1041      C1043   1.410       .  A
C1041      C1042   1.414       .  A
C1042      C1050   1.407       .  A
C1043      C1052   1.405       .  A
C1043      C1044   1.405       .  A
C1044      C1045   1.402       .  A
C1044      H1055   1.084       .  S
C1045      C1046   1.404       .  A
C1045      H1056   1.083       .  S
C1046      C1047   1.411       .  A
C1047      C1048   1.406       .  A
C1047      H1057   1.084       .  S
C1048      C1049   1.407       .  A
C1049      H1058   1.085       .  S
C1050      C1051   1.404       .  A
C1050      H1059   1.084       .  S
C1051      C1052   1.409       .  A
C1052      H1060   1.084       .  S
C1061      C1062   1.401       .  A
C1061      C1066   1.404       .  A
C1061      H1077   1.083       .  S
C1062      C1063   1.405       .  A
C1062      H1078   1.084       .  S
C1063      C1073   1.403       .  A
C1063      C1064   1.409       .  A
C1064      C1070   1.414       .  A
C1064      C1065   1.414       .  A
C1065      C1067   1.409       .  A
C1065      C1066   1.415       .  A
C1066      C1074   1.409       .  A
C1067      C1076   1.401       .  A
C1067      C1068   1.404       .  A
C1068      C1069   1.399       .  A
C1068      H1079   1.083       .  S
C1069      C1070   1.403       .  A
C1069      H1080   1.084       .  S
C1070      C1071   1.406       .  A
C1071      C1072   1.403       .  A
C1071      H1081   1.084       .  S
C1072      C1073   1.409       .  A
C1073      H1082   1.085       .  S
C1074      C1075   1.404       .  A
C1074      H1083   1.084       .  S
C1075      C1076   1.408       .  A
C1076      H1084   1.085       .  S
C1085      C1086   1.401       .  A
C1085      C1090   1.404       .  A
C1085      H1101   1.084       .  S
C1086      C1087   1.405       .  A
C1086      H1102   1.084       .  S
C1087      C1097   1.403       .  A
C1087      C1088   1.408       .  A
C1088      C1094   1.415       .  A
C1088      C1089   1.414       .  A
C1089      C1091   1.407       .  A
C1089      C1090   1.416       .  A
C1090      C1098   1.412       .  A
C1091      C1100   1.399       .  A
C1091      C1092   1.405       .  A
C1092      C1093   1.399       .  A
C1092      H1103   1.085       .  S
C1093      C1094   1.403       .  A
C1093      H1104   1.082       .  S
C1094      C1095   1.408       .  A
C1095      C1096   1.404       .  A
C1095      H1105   1.083       .  S
C1096      C1097   1.410       .  A
C1097      H1106   1.085       .  S
C1098      C1099   1.405       .  A
C1098      H1107   1.085       .  S
C1099      C1100   1.410       .  A
C1100      H1108   1.086       .  S
C1109      C1110   1.401       .  A
C1109      C1114   1.404       .  A
C1109      H1125   1.084       .  S
C1110      C1111   1.405       .  A
C1110      H1126   1.083       .  S
C1111      C1121   1.404       .  A
C1111      C1112   1.410       .  A
C1112      C1118   1.414       .  A
C1112      C1113   1.414       .  A
C1113      C1115   1.409       .  A
C1113      C1114   1.415       .  A
C1114      C1122   1.409       .  A
C1115      C1124   1.401       .  A
C1115      C1116   1.404       .  A
C1116      C1117   1.399       .  A
C1116      H1127   1.084       .  S
C1117      C1118   1.403       .  A
C1117      H1128   1.084       .  S
C1118      C1119   1.406       .  A
C1119      C1120   1.406       .  A
C1119      H1129   1.084       .  S
C1120      C1121   1.410       .  A
C1121      H1130   1.084       .  S
C1122      C1123   1.405       .  A
C1122      H1131   1.084       .  S
C1123      C1124   1.408       .  A
C1124      H1132   1.085       .  S
C1133      C1134   1.405       .  A
C1133      C1138   1.405       .  A
C1133      H1149   1.083       .  S
C1134      C1135   1.407       .  A
C1134      H1150   1.083       .  S
C1135      C1145   1.409       .  A
C1135      C1136   1.409       .  A
C1136      C1142   1.413       .  A
C1136      C1137   1.416       .  A
C1137      C1139   1.407       .  A
C1137      C1138   1.415       .  A
C1138      C1146   1.416       .  A
C1139      C1148   1.397       .  A
C1139      C1140   1.403       .  A
C1140      C1141   1.397       .  A
C1140      H1151   1.084       .  S
C1141      C1142   1.402       .  A
C1141      H1152   1.084       .  S
C1142      C1143   1.404       .  A
C1143      C1144   1.406       .  A
C1143      H1153   1.084       .  S
C1144      C1145   1.415       .  A
C1145      H1154   1.084       .  S
C1146      C1147   1.409       .  A
C1146      H1155   1.084       .  S
C1147      C1148   1.410       .  A
C1148      H1156   1.085       .  S
C1157      C1158   1.400       .  A
C1157      C1162   1.405       .  A
C1157      H1173   1.084       .  S
C1158      C1159   1.403       .  A
C1158      H1174   1.083       .  S
C1159      C1169   1.410       .  A
C1159      C1160   1.415       .  A
C1160      C1166   1.407       .  A
C1160      C1161   1.415       .  A
C1161      C1163   1.416       .  A
C1161      C1162   1.407       .  A
C1162      C1170   1.400       .  A
C1163      C1172   1.412       .  A
C1163      C1164   1.403       .  A
C1164      C1165   1.401       .  A
C1164      H1175   1.084       .  S
C1165      C1166   1.406       .  A
C1165      H1176   1.083       .  S
C1166      C1167   1.403       .  A
C1167      C1168   1.414       .  A
C1167      H1177   1.084       .  S
C1168      C1169   1.407       .  A
C1169      H1178   1.084       .  S
C1170      C1171   1.410       .  A
C1170      H1179   1.085       .  S
C1171      C1172   1.405       .  A
C1172      H1180   1.084       .  S
C1181      C1182   1.397       .  A
C1181      C1186   1.404       .  A
C1181      H1197   1.084       .  S
C1182      C1183   1.402       .  A
C1182      H1198   1.084       .  S
C1183      C1193   1.404       .  A
C1183      C1184   1.414       .  A
C1184      C1190   1.407       .  A
C1184      C1185   1.412       .  A
C1185      C1187   1.416       .  A
C1185      C1186   1.407       .  A
C1186      C1194   1.395       .  A
C1187      C1196   1.411       .  A
C1187      C1188   1.403       .  A
C1188      C1189   1.401       .  A
C1188      H1199   1.084       .  S
C1189      C1190   1.406       .  A
C1189      H1200   1.083       .  S
C1190      C1191   1.402       .  A
C1191      C1192   1.414       .  A
C1191      H1201   1.083       .  S
C1192      C1193   1.406       .  A
C1193      H1202   1.083       .  S
C1194      C1195   1.410       .  A
C1194      H1203   1.085       .  S
C1195      C1196   1.405       .  A
C1196      H1204   1.084       .  S
C1205      C1206   1.402       .  A
C1205      C1210   1.404       .  A
C1205      H1221   1.084       .  S
C1206      C1207   1.406       .  A
C1206      H1222   1.083       .  S
C1207      C1217   1.405       .  A
C1207      C1208   1.409       .  A
C1208      C1214   1.415       .  A
C1208      C1209   1.416       .  A
C1209      C1211   1.408       .  A
C1209      C1210   1.416       .  A
C1210      C1218   1.413       .  A
C1211      C1220   1.402       .  A
C1211      C1212   1.405       .  A
C1212      C1213   1.400       .  A
C1212      H1223   1.084       .  S
C1213      C1214   1.403       .  A
C1213      H1224   1.084       .  S
C1214      C1215   1.409       .  A
C1215      C1216   1.405       .  A
C1215      H1225   1.084       .  S
C1216      C1217   1.412       .  A
C1217      H1226   1.084       .  S
C1218      C1219   1.406       .  A
C1218      H1227   1.084       .  S
C1219      C1220   1.410       .  A
C1220      H1228   1.085       .  S
C1229      C1230   1.398       .  A
C1229      C1234   1.402       .  A
C1229      H1245   1.084       .  S
C1230      C1231   1.404       .  A
C1230      H1246   1.084       .  S
C1231      C1241   1.398       .  A
C1231      C1232   1.409       .  A
C1232      C1238   1.415       .  A
C1232      C1233   1.413       .  A
C1233      C1235   1.409       .  A
C1233      C1234   1.415       .  A
C1234      C1242   1.404       .  A
C1235      C1244   1.403       .  A
C1235      C1236   1.405       .  A
C1236      C1237   1.401       .  A
C1236      H1247   1.084       .  S
C1237      C1238   1.404       .  A
C1237      H1248   1.083       .  S
C1238      C1239   1.411       .  A
C1239      C1240   1.405       .  A
C1239      H1249   1.084       .  S
C1240      C1241   1.406       .  A
C1241      H1250   1.085       .  S
C1242      C1243   1.403       .  A
C1242      H1251   1.084       .  S
C1243      C1244   1.410       .  A
C1244      H1252   1.084       .  S
C1253      C1254   1.399       .  A
C1253      C1258   1.404       .  A
C1253      H1269   1.083       .  S
C1254      C1255   1.403       .  A
C1254      H1270   1.084       .  S
C1255      C1265   1.403       .  A
C1255      C1256   1.411       .  A
C1256      C1262   1.413       .  A
C1256      C1257   1.413       .  A
C1257      C1259   1.411       .  A
C1257      C1258   1.412       .  A
C1258      C1266   1.405       .  A
C1259      C1268   1.404       .  A
C1259      C1260   1.404       .  A
C1260      C1261   1.400       .  A
C1260      H1271   1.083       .  S
C1261      C1262   1.403       .  A
C1261      H1272   1.084       .  S
C1262      C1263   1.405       .  A
C1263      C1264   1.405       .  A
C1263      H1273   1.084       .  S
C1264      C1265   1.405       .  A
C1265      H1274   1.084   1_545  S
C1266      C1267   1.408       .  A
C1266      H1275   1.084       .  S
C1267      C1268   1.409       .  A
C1268      H1276   1.084       .  S
C1277      C1278   1.401       .  A
C1277      C1282   1.405       .  A
C1277      H1293   1.084       .  S
C1278      C1279   1.404       .  A
C1278      H1294   1.083       .  S
C1279      C1289   1.409       .  A
C1279      C1280   1.413       .  A
C1280      C1286   1.410       .  A
C1280      C1281   1.415       .  A
C1281      C1283   1.413       .  A
C1281      C1282   1.411       .  A
C1282      C1290   1.406       .  A
C1283      C1292   1.406       .  A
C1283      C1284   1.403       .  A
C1284      C1285   1.400       .  A
C1284      H1295   1.084       .  S
C1285      C1286   1.405       .  A
C1285      H1296   1.083       .  S
C1286      C1287   1.404       .  A
C1287      C1288   1.410       .  A
C1287      H1297   1.084       .  S
C1288      C1289   1.408       .  A
C1289      H1298   1.084       .  S
C1290      C1291   1.409       .  A
C1290      H1299   1.084       .  S
C1291      C1292   1.405       .  A
C1292      H1300   1.084       .  S
C1301      C1302   1.401       .  A
C1301      C1306   1.405       .  A
C1301      H1317   1.083       .  S
C1302      C1303   1.404       .  A
C1302      H1318   1.084       .  S
C1303      C1313   1.408       .  A
C1303      C1304   1.413       .  A
C1304      C1310   1.411       .  A
C1304      C1305   1.413       .  A
C1305      C1307   1.411       .  A
C1305      C1306   1.412       .  A
C1306      C1314   1.407       .  A
C1307      C1316   1.402       .  A
C1307      C1308   1.403       .  A
C1308      C1309   1.398       .  A
C1308      H1319   1.084       .  S
C1309      C1310   1.403       .  A
C1309      H1320   1.083       .  S
C1310      C1311   1.401       .  A
C1311      C1312   1.405       .  A
C1311      H1321   1.085       .  S
C1312      C1313   1.406       .  A
C1313      H1322   1.084       .  S
C1314      C1315   1.408       .  A
C1314      H1323   1.084       .  S
C1315      C1316   1.407       .  A
C1316      H1324   1.084       .  S
C1325      C1326   1.401       .  A
C1325      C1330   1.405       .  A
C1325      H1341   1.083       .  S
C1326      C1327   1.404       .  A
C1326      H1342   1.084       .  S
C1327      C1337   1.407       .  A
C1327      C1328   1.414       .  A
C1328      C1334   1.411       .  A
C1328      C1329   1.411       .  A
C1329      C1331   1.412       .  A
C1329      C1330   1.410       .  A
C1330      C1338   1.404       .  A
C1331      C1340   1.400       .  A
C1331      C1332   1.402       .  A
C1332      C1333   1.396       .  A
C1332      H1343   1.083       .  S
C1333      C1334   1.402       .  A
C1333      H1344   1.084       .  S
C1334      C1335   1.397       .  A
C1335      C1336   1.403       .  A
C1335      H1345   1.085       .  S
C1336      C1337   1.405       .  A
C1337      H1346   1.084       .  S
C1338      C1339   1.410       .  A
C1338      H1347   1.084       .  S
C1339      C1340   1.404       .  A
C1340      H1348   1.084       .  S
C1349      C1350   1.399       .  A
C1349      C1354   1.403       .  A
C1349      H1365   1.084       .  S
C1350      C1351   1.404       .  A
C1350      H1366   1.083       .  S
C1351      C1361   1.402       .  A
C1351      C1352   1.409       .  A
C1352      C1358   1.415       .  A
C1352      C1353   1.415       .  A
C1353      C1355   1.409       .  A
C1353      C1354   1.414       .  A
C1354      C1362   1.407       .  A
C1355      C1364   1.405       .  A
C1355      C1356   1.405       .  A
C1356      C1357   1.402       .  A
C1356      H1367   1.083       .  S
C1357      C1358   1.404       .  A
C1357      H1368   1.084       .  S
C1358      C1359   1.411       .  A
C1359      C1360   1.406       .  A
C1359      H1369   1.084       .  S
C1360      C1361   1.409       .  A
C1361      H1370   1.084       .  S
C1362      C1363   1.407       .  A
C1362      H1371   1.084       .  S
C1363      C1364   1.412       .  A
C1364      H1372   1.084       .  S
C1373      C1374   1.399       .  A
C1373      C1378   1.403       .  A
C1373      H1389   1.084       .  S
C1374      C1375   1.404       .  A
C1374      H1390   1.084       .  S
C1375      C1385   1.402       .  A
C1375      C1376   1.410       .  A
C1376      C1382   1.413       .  A
C1376      C1377   1.413       .  A
C1377      C1379   1.410       .  A
C1377      C1378   1.414       .  A
C1378      C1386   1.406       .  A
C1379      C1388   1.403       .  A
C1379      C1380   1.404       .  A
C1380      C1381   1.400       .  A
C1380      H1391   1.084   1_545  S
C1381      C1382   1.404       .  A
C1381      H1392   1.083       .  S
C1382      C1383   1.407       .  A
C1383      C1384   1.406       .  A
C1383      H1393   1.084       .  S
C1384      C1385   1.408       .  A
C1385      H1394   1.084       .  S
C1386      C1387   1.405       .  A
C1386      H1395   1.084       .  S
C1387      C1388   1.408       .  A
C1388      H1396   1.084   1_545  S
C1397      C1398   1.399       .  A
C1397      C1402   1.403       .  A
C1397      H1413   1.083       .  S
C1398      C1399   1.403       .  A
C1398      H1414   1.084       .  S
C1399      C1409   1.404       .  A
C1399      C1400   1.412       .  A
C1400      C1406   1.410       .  A
C1400      C1401   1.414       .  A
C1401      C1403   1.414       .  A
C1401      C1402   1.410       .  A
C1402      C1410   1.401       .  A
C1403      C1412   1.408       .  A
C1403      C1404   1.404       .  A
C1404      C1405   1.401       .  A
C1404      H1415   1.084       .  S
C1405      C1406   1.405       .  A
C1405      H1416   1.083       .  S
C1406      C1407   1.405       .  A
C1407      C1408   1.410       .  A
C1407      H1417   1.084       .  S
C1408      C1409   1.407       .  A
C1409      H1418   1.084       .  S
C1410      C1411   1.406       .  A
C1410      H1419   1.085       .  S
C1411      C1412   1.405       .  A
C1412      H1420   1.084       .  S
C1421      C1422   1.399       .  A
C1421      C1426   1.404       .  A
C1421      H1437   1.084       .  S
C1422      C1423   1.403       .  A
C1422      H1438   1.084       .  S
C1423      C1433   1.406       .  A
C1423      C1424   1.414       .  A
C1424      C1430   1.408       .  A
C1424      C1425   1.413       .  A
C1425      C1427   1.416       .  A
C1425      C1426   1.408       .  A
C1426      C1434   1.399       .  A
C1427      C1436   1.409       .  A
C1427      C1428   1.403       .  A
C1428      C1429   1.400       .  A
C1428      H1439   1.084       .  S
C1429      C1430   1.405       .  A
C1429      H1440   1.083   1_565  S
C1430      C1431   1.402       .  A
C1431      C1432   1.411       .  A
C1431      H1441   1.084   1_565  S
C1432      C1433   1.406       .  A
C1433      H1442   1.084       .  S
C1434      C1435   1.408       .  A
C1434      H1443   1.085       .  S
C1435      C1436   1.404       .  A
C1436      H1444   1.084       .  S
C1445      C1446   1.401       .  A
C1445      C1450   1.404       .  A
C1445      H1461   1.084       .  S
C1446      C1447   1.405       .  A
C1446      H1462   1.083       .  S
C1447      C1457   1.405       .  A
C1447      C1448   1.411       .  A
C1448      C1454   1.412       .  A
C1448      C1449   1.411       .  A
C1449      C1451   1.411       .  A
C1449      C1450   1.413       .  A
C1450      C1458   1.406       .  A
C1451      C1460   1.399       .  A
C1451      C1452   1.403       .  A
C1452      C1453   1.397       .  A
C1452      H1463   1.084       .  S
C1453      C1454   1.403       .  A
C1453      H1464   1.084       .  S
C1454      C1455   1.401       .  A
C1455      C1456   1.405       .  A
C1455      H1465   1.084       .  S
C1456      C1457   1.408       .  A
C1457      H1466   1.084       .  S
C1458      C1459   1.405       .  A
C1458      H1467   1.084       .  S
C1459      C1460   1.404       .  A
C1460      H1468   1.085       .  S
C1469      C1470   1.400       .  A
C1469      C1474   1.403       .  A
C1469      H1485   1.084       .  S
C1470      C1471   1.405       .  A
C1470      H1486   1.084       .  S
C1471      C1481   1.402       .  A
C1471      C1472   1.409       .  A
C1472      C1478   1.415       .  A
C1472      C1473   1.415       .  A
C1473      C1475   1.409       .  A
C1473      C1474   1.414       .  A
C1474      C1482   1.408       .  A
C1475      C1484   1.403       .  A
C1475      C1476   1.405       .  A
C1476      C1477   1.401       .  A
C1476      H1487   1.083       .  S
C1477      C1478   1.403       .  A
C1477      H1488   1.084       .  S
C1478      C1479   1.410       .  A
C1479      C1480   1.405       .  A
C1479      H1489   1.084       .  S
C1480      C1481   1.410       .  A
C1481      H1490   1.085       .  S
C1482      C1483   1.406       .  A
C1482      H1491   1.084       .  S
C1483      C1484   1.410       .  A
C1484      H1492   1.084       .  S
C1493      C1494   1.399       .  A
C1493      C1498   1.403       .  A
C1493      H1509   1.083       .  S
C1494      C1495   1.403       .  A
C1494      H1510   1.083       .  S
C1495      C1505   1.405       .  A
C1495      C1496   1.412       .  A
C1496      C1502   1.411       .  A
C1496      C1497   1.415       .  A
C1497      C1499   1.413       .  A
C1497      C1498   1.411       .  A
C1498      C1506   1.403       .  A
C1499      C1508   1.408       .  A
C1499      C1500   1.404       .  A
C1500      C1501   1.402       .  A
C1500      H1511   1.084       .  S
C1501      C1502   1.406       .  A
C1501      H1512   1.083       .  S
C1502      C1503   1.408       .  A
C1503      C1504   1.411       .  A
C1503      H1513   1.084       .  S
C1504      C1505   1.407       .  A
C1505      H1514   1.084       .  S
C1506      C1507   1.406       .  A
C1506      H1515   1.084       .  S
C1507      C1508   1.406       .  A
C1508      H1516   1.084       .  S
C1517      C1518   1.399       .  A
C1517      C1522   1.403       .  A
C1517      H1533   1.084       .  S
C1518      C1519   1.403       .  A
C1518      H1534   1.083       .  S
C1519      C1529   1.403       .  A
C1519      C1520   1.412       .  A
C1520      C1526   1.411       .  A
C1520      C1521   1.413       .  A
C1521      C1523   1.413       .  A
C1521      C1522   1.411       .  A
C1522      C1530   1.402       .  A
C1523      C1532   1.406       .  A
C1523      C1524   1.404       .  A
C1524      C1525   1.400       .  A
C1524      H1535   1.084       .  S
C1525      C1526   1.404       .  A
C1525      H1536   1.083       .  S
C1526      C1527   1.404       .  A
C1527      C1528   1.408       .  A
C1527      H1537   1.084       .  S
C1528      C1529   1.408       .  A
C1529      H1538   1.084       .  S
C1530      C1531   1.406       .  A
C1530      H1539   1.085       .  S
C1531      C1532   1.405       .  A
C1532      H1540   1.084       .  S
C1541      C1542   1.396       .  A
C1541      C1546   1.403       .  A
C1541      H1557   1.084       .  S
C1542      C1543   1.402       .  A
C1542      H1558   1.084       .  S
C1543      C1553   1.401       .  A
C1543      C1544   1.413       .  A
C1544      C1550   1.409       .  A
C1544      C1545   1.412       .  A
C1545      C1547   1.415       .  A
C1545      C1546   1.408       .  A
C1546      C1554   1.396       .  A
C1547      C1556   1.410       .  A
C1547      C1548   1.404       .  A
C1548      C1549   1.401       .  A
C1548      H1559   1.083       .  S
C1549      C1550   1.405       .  A
C1549      H1560   1.083       .  S
C1550      C1551   1.404       .  A
C1551      C1552   1.411       .  A
C1551      H1561   1.084       .  S
C1552      C1553   1.405       .  A
C1553      H1562   1.084       .  S
C1554      C1555   1.407       .  A
C1554      H1563   1.085       .  S
C1555      C1556   1.405       .  A
C1556      H1564   1.084       .  S
C1565      C1566   1.402       .  A
C1565      C1570   1.404       .  A
C1565      H1581   1.083       .  S
C1566      C1567   1.405       .  A
C1566      H1582   1.084       .  S
C1567      C1577   1.405       .  A
C1567      C1568   1.410       .  A
C1568      C1574   1.414       .  A
C1568      C1569   1.415       .  A
C1569      C1571   1.409       .  A
C1569      C1570   1.414       .  A
C1570      C1578   1.410       .  A
C1571      C1580   1.403       .  A
C1571      C1572   1.405       .  A
C1572      C1573   1.400       .  A
C1572      H1583   1.084       .  S
C1573      C1574   1.403       .  A
C1573      H1584   1.084       .  S
C1574      C1575   1.407       .  A
C1575      C1576   1.405       .  A
C1575      H1585   1.084       .  S
C1576      C1577   1.409       .  A
C1577      H1586   1.084       .  S
C1578      C1579   1.409       .  A
C1578      H1587   1.084       .  S
C1579      C1580   1.410       .  A
C1580      H1588   1.084       .  S
C1589      C1590   1.402       .  A
C1589      C1594   1.404       .  A
C1589      H1605   1.084       .  S
C1590      C1591   1.406       .  A
C1590      H1606   1.083       .  S
C1591      C1601   1.409       .  A
C1591      C1592   1.411       .  A
C1592      C1598   1.412       .  A
C1592      C1593   1.416       .  A
C1593      C1595   1.410       .  A
C1593      C1594   1.414       .  A
C1594      C1602   1.410       .  A
C1595      C1604   1.402       .  A
C1595      C1596   1.404       .  A
C1596      C1597   1.399       .  A
C1596      H1607   1.084       .  S
C1597      C1598   1.403       .  A
C1597      H1608   1.083       .  S
C1598      C1599   1.405       .  A
C1599      C1600   1.408       .  A
C1599      H1609   1.084       .  S
C1600      C1601   1.410       .  A
C1601      H1610   1.084       .  S
C1602      C1603   1.407       .  A
C1602      H1611   1.084       .  S
C1603      C1604   1.408       .  A
C1604      H1612   1.085       .  S
C1613      C1614   1.397       .  A
C1613      C1618   1.403       .  A
C1613      H1629   1.083       .  S
C1614      C1615   1.402       .  A
C1614      H1630   1.084       .  S
C1615      C1625   1.400       .  A
C1615      C1616   1.412       .  A
C1616      C1622   1.413       .  A
C1616      C1617   1.412       .  A
C1617      C1619   1.411       .  A
C1617      C1618   1.411       .  A
C1618      C1626   1.400       .  A
C1619      C1628   1.406       .  A
C1619      C1620   1.405       .  A
C1620      C1621   1.401       .  A
C1620      H1631   1.084       .  S
C1621      C1622   1.404       .  A
C1621      H1632   1.083       .  S
C1622      C1623   1.406       .  A
C1623      C1624   1.404       .  A
C1623      H1633   1.084       .  S
C1624      C1625   1.402       .  A
C1625      H1634   1.085   1_455  S
C1626      C1627   1.407       .  A
C1626      H1635   1.084       .  S
C1627      C1628   1.409       .  A
C1628      H1636   1.084       .  S
C1637      C1638   1.400       .  A
C1637      C1642   1.404       .  A
C1637      H1653   1.084       .  S
C1638      C1639   1.404       .  A
C1638      H1654   1.083       .  S
C1639      C1649   1.405       .  A
C1639      C1640   1.412       .  A
C1640      C1646   1.413       .  A
C1640      C1641   1.415       .  A
C1641      C1643   1.412       .  A
C1641      C1642   1.411       .  A
C1642      C1650   1.405       .  A
C1643      C1652   1.407       .  A
C1643      C1644   1.404       .  A
C1644      C1645   1.401       .  A
C1644      H1655   1.083       .  S
C1645      C1646   1.404       .  A
C1645      H1656   1.084       .  S
C1646      C1647   1.406       .  A
C1647      C1648   1.404       .  A
C1647      H1657   1.084       .  S
C1648      C1649   1.405       .  A
C1649      H1658   1.084       .  S
C1650      C1651   1.410       .  A
C1650      H1659   1.084       .  S
C1651      C1652   1.409       .  A
C1652      H1660   1.084       .  S
C1661      C1662   1.398       .  A
C1661      C1666   1.404       .  A
C1661      H1677   1.084       .  S
C1662      C1663   1.402       .  A
C1662      H1678   1.084       .  S
C1663      C1673   1.402       .  A
C1663      C1664   1.413       .  A
C1664      C1670   1.411       .  A
C1664      C1665   1.412       .  A
C1665      C1667   1.413       .  A
C1665      C1666   1.410       .  A
C1666      C1674   1.400       .  A
C1667      C1676   1.407       .  A
C1667      C1668   1.404       .  A
C1668      C1669   1.401       .  A
C1668      H1679   1.083       .  S
C1669      C1670   1.404       .  A
C1669      H1680   1.084       .  S
C1670      C1671   1.404       .  A
C1671      C1672   1.406       .  A
C1671      H1681   1.084   1_455  S
C1672      C1673   1.402       .  A
C1673      H1682   1.084       .  S
C1674      C1675   1.408       .  A
C1674      H1683   1.084       .  S
C1675      C1676   1.408       .  A
C1676      H1684   1.084       .  S
C1685      C1686   1.398       .  A
C1685      C1690   1.404       .  A
C1685      H1701   1.083       .  S
C1686      C1687   1.403       .  A
C1686      H1702   1.084       .  S
C1687      C1697   1.404       .  A
C1687      C1688   1.413       .  A
C1688      C1694   1.408       .  A
C1688      C1689   1.413       .  A
C1689      C1691   1.415       .  A
C1689      C1690   1.409       .  A
C1690      C1698   1.399       .  A
C1691      C1700   1.408       .  A
C1691      C1692   1.403       .  A
C1692      C1693   1.400       .  A
C1692      H1703   1.084       .  S
C1693      C1694   1.405       .  A
C1693      H1704   1.083       .  S
C1694      C1695   1.403       .  A
C1695      C1696   1.413       .  A
C1695      H1705   1.083       .  S
C1696      C1697   1.407       .  A
C1697      H1706   1.083       .  S
C1698      C1699   1.408       .  A
C1698      H1707   1.084       .  S
C1699      C1700   1.405       .  A
C1700      H1708   1.084       .  S
C1709      C1710   1.401       .  A
C1709      C1714   1.404       .  A
C1709      H1725   1.084       .  S
C1710      C1711   1.404       .  A
C1710      H1726   1.083       .  S
C1711      C1721   1.407       .  A
C1711      C1712   1.412       .  A
C1712      C1718   1.410       .  A
C1712      C1713   1.414       .  A
C1713      C1715   1.413       .  A
C1713      C1714   1.412       .  A
C1714      C1722   1.406       .  A
C1715      C1724   1.404       .  A
C1715      C1716   1.403       .  A
C1716      C1717   1.399       .  A
C1716      H1727   1.083       .  S
C1717      C1718   1.404       .  A
C1717      H1728   1.083       .  S
C1718      C1719   1.403       .  A
C1719      C1720   1.410       .  A
C1719      H1729   1.084       .  S
C1720      C1721   1.409       .  A
C1721      H1730   1.084       .  S
C1722      C1723   1.405       .  A
C1722      H1731   1.084       .  S
C1723      C1724   1.403       .  A
C1724      H1732   1.084       .  S
C1733      C1734   1.401       .  A
C1733      C1738   1.405       .  A
C1733      H1749   1.083       .  S
C1734      C1735   1.404       .  A
C1734      H1750   1.084       .  S
C1735      C1745   1.409       .  A
C1735      C1736   1.414       .  A
C1736      C1742   1.409       .  A
C1736      C1737   1.414       .  A
C1737      C1739   1.412       .  A
C1737      C1738   1.409       .  A
C1738      C1746   1.405       .  A
C1739      C1748   1.404       .  A
C1739      C1740   1.403       .  A
C1740      C1741   1.398       .  A
C1740      H1751   1.084       .  S
C1741      C1742   1.404       .  A
C1741      H1752   1.083       .  S
C1742      C1743   1.400       .  A
C1743      C1744   1.410       .  A
C1743      H1753   1.084       .  S
C1744      C1745   1.406       .  A
C1745      H1754   1.084       .  S
C1746      C1747   1.412       .  A
C1746      H1755   1.083       .  S
C1747      C1748   1.408       .  A
C1748      H1756   1.084       .  S
C1757      C1758   1.402       .  A
C1757      C1762   1.405       .  A
C1757      H1773   1.084       .  S
C1758      C1759   1.404       .  A
C1758      H1774   1.083       .  S
C1759      C1769   1.408       .  A
C1759      C1760   1.413       .  A
C1760      C1766   1.410       .  A
C1760      C1761   1.413       .  A
C1761      C1763   1.413       .  A
C1761      C1762   1.411       .  A
C1762      C1770   1.406       .  A
C1763      C1772   1.402       .  A
C1763      C1764   1.402       .  A
C1764      C1765   1.397       .  A
C1764      H1775   1.084       .  S
C1765      C1766   1.403       .  A
C1765      H1776   1.083       .  S
C1766      C1767   1.399       .  A
C1767      C1768   1.407       .  A
C1767      H1777   1.084       .  S
C1768      C1769   1.408       .  A
C1769      H1778   1.084       .  S
C1770      C1771   1.408       .  A
C1770      H1779   1.084   1_556  S
C1771      C1772   1.404       .  A
C1772      H1780   1.084       .  S
C1781      C1782   1.398       .  A
C1781      C1786   1.403       .  A
C1781      H1797   1.084       .  S
C1782      C1783   1.402       .  A
C1782      H1798   1.084       .  S
C1783      C1793   1.403       .  A
C1783      C1784   1.413       .  A
C1784      C1790   1.410       .  A
C1784      C1785   1.413       .  A
C1785      C1787   1.414       .  A
C1785      C1786   1.410       .  A
C1786      C1794   1.399       .  A
C1787      C1796   1.408       .  A
C1787      C1788   1.404       .  A
C1788      C1789   1.401       .  A
C1788      H1799   1.084       .  S
C1789      C1790   1.405       .  A
C1789      H1800   1.083       .  S
C1790      C1791   1.404       .  A
C1791      C1792   1.409       .  A
C1791      H1801   1.084       .  S
C1792      C1793   1.405       .  A
C1793      H1802   1.084       .  S
C1794      C1795   1.407       .  A
C1794      H1803   1.085       .  S
C1795      C1796   1.406       .  A
C1796      H1804   1.084       .  S
C1805      C1806   1.401       .  A
C1805      C1810   1.405       .  A
C1805      H1821   1.083       .  S
C1806      C1807   1.404       .  A
C1806      H1822   1.084       .  S
C1807      C1817   1.408       .  A
C1807      C1808   1.413       .  A
C1808      C1814   1.412       .  A
C1808      C1809   1.415       .  A
C1809      C1811   1.412       .  A
C1809      C1810   1.411       .  A
C1810      C1818   1.407       .  A
C1811      C1820   1.406       .  A
C1811      C1812   1.404       .  A
C1812      C1813   1.400       .  A
C1812      H1823   1.083       .  S
C1813      C1814   1.403       .  A
C1813      H1824   1.084       .  S
C1814      C1815   1.404       .  A
C1815      C1816   1.405       .  A
C1815      H1825   1.084       .  S
C1816      C1817   1.405       .  A
C1817      H1826   1.084       .  S
C1818      C1819   1.411       .  A
C1818      H1827   1.084       .  S
C1819      C1820   1.410       .  A
C1820      H1828   1.084       .  S
