geometry optimzed in LAMMPS
_audit_creation_date              2020-11-30 
_audit_creation_method            'lammps2cif' 
_symmetry_space_group_name_H-M    'P1' 
_symmetry_Int_Tables_number       1 
_symmetry_cell_setting            triclinic 
loop_ 
_symmetry_equiv_pos_as_xyz 
  x,y,z 
_cell_length_a                    34.47517202 
_cell_length_b                    34.53080747031209 
_cell_length_c                    59.85027737232554 
_cell_angle_alpha                 89.81750004256027 
_cell_angle_beta                  90.11947689496571 
_cell_angle_gamma                 89.92410971759081 
loop_ 
_atom_site_label 
_atom_site_type_symbol 
_atom_site_fract_x 
_atom_site_fract_y 
_atom_site_fract_z 
_atom_site_charge 
N1          N  0.37665265  0.24815283  0.40721607    -0.34900
N2          N  0.39552241  0.30806799  0.37543866    -0.55500
N3          N  0.40411183  0.24889236  0.34057624    -0.34900
N4          N  0.38843299  0.18829427  0.37272902    -0.55500
C5          C  0.37856755  0.27885398  0.42118963     0.28700
C6          C  0.37724042  0.21572957  0.41992868     0.28700
C7          C  0.42224918  0.27960027  0.33097093     0.28700
C8          C  0.41444266  0.21661432  0.32902750     0.28700
C9          C  0.38501260  0.33108185  0.39268575     0.37300
C10         C  0.40308999  0.33169687  0.35793113     0.37300
C11         C  0.37117111  0.16766901  0.38912455     0.37300
C12         C  0.38357886  0.16793056  0.35364018     0.37300
C13         C  0.38010139  0.26579399  0.44310139    -0.20200
C14         C  0.37953779  0.22592478  0.44230896    -0.20200
C15         C  0.44391253  0.26657853  0.31293568    -0.20200
C16         C  0.43918834  0.22710530  0.31179955    -0.20200
C17         C  0.38627517  0.36956130  0.38618590    -0.21300
C18         C  0.39823700  0.37002600  0.36436566    -0.21200
C19         C  0.35518190  0.13409947  0.38045908    -0.21300
C20         C  0.36225714  0.13471259  0.35789685    -0.21200
C21         C  0.37722686  0.31823497  0.41469033    -0.16600
C22         C  0.37147334  0.17768077  0.41196482    -0.16600
C23         C  0.40068497  0.17827076  0.33298866    -0.16600
C24         C  0.41825652  0.31929033  0.33712927    -0.16600
H25         H  0.38127162  0.28318581  0.45810135     0.16300
H26         H  0.37961487  0.20668413  0.45662243     0.16300
H27         H  0.46136653  0.28359659  0.30157157     0.16300
H28         H  0.45281153  0.20839603  0.29964691     0.16300
H29         H  0.38064736  0.39482740  0.39633814     0.14600
H30         H  0.40373138  0.39601716  0.35481454     0.14600
H31         H  0.33937596  0.11187718  0.38939937     0.14600
H32         H  0.35226604  0.11328892  0.34608161     0.14600
H33         H  0.37046097  0.24920285  0.39026001     0.27900
H34         H  0.38278565  0.25037811  0.35278761     0.27900
N35         N  0.12677923  0.19267874  0.37470443    -0.34900
N36         N  0.11227320  0.25273498  0.34148480    -0.55500
N37         N  0.12690832  0.31263002  0.37403521    -0.34900
N38         N  0.13726435  0.25245547  0.40819526    -0.55500
C39         C  0.10983312  0.17135434  0.35846510     0.28700
C40         C  0.12506220  0.17170408  0.39379584     0.23900
C41         C  0.11107090  0.33406795  0.35735640     0.28700
C42         C  0.12358969  0.33336612  0.39307009     0.28700
C43         C  0.11153656  0.22103371  0.32823495     0.37300
C44         C  0.11291553  0.28391796  0.32769223     0.37300
C45         C  0.14921938  0.22139166  0.42015921     0.37300
C46         C  0.14800929  0.28395590  0.41996185     0.37300
C47         C  0.09738635  0.13636216  0.36739312    -0.20200
C48         C  0.10742477  0.13642078  0.38963543    -0.20200
C49         C  0.09767767  0.36888576  0.36595701    -0.20200
C50         C  0.10596079  0.36859012  0.38844807    -0.20200
C51         C  0.11211406  0.23214652  0.30595866    -0.21300
C52         C  0.11312359  0.27185940  0.30561124    -0.21200
C53         C  0.16738344  0.23314860  0.43966404    -0.21300
C54         C  0.16659618  0.27288002  0.43955505    -0.21200
C55         C  0.10605699  0.18249522  0.33578088    -0.16600
C56         C  0.14102492  0.18271631  0.41451310    -0.16600
C57         C  0.13829576  0.32230617  0.41416110    -0.16600
C58         C  0.10876770  0.32294226  0.33462769    -0.16600
H59         H  0.08248095  0.11311534  0.35890096     0.16300
H60         H  0.10202364  0.11327090  0.40145894     0.16300
H61         H  0.08305483  0.39206136  0.35711967     0.16300
H62         H  0.09946477  0.39157261  0.40012021     0.16300
H63         H  0.11107532  0.21356662  0.29143661     0.14600
H64         H  0.11296644  0.28980328  0.29075183     0.14600
H65         H  0.17921982  0.21500703  0.45279682     0.14600
H66         H  0.17776632  0.29144772  0.45260243     0.14600
H67         H  0.14208065  0.21834070  0.37247315     0.27900
H68         H  0.14252349  0.28703394  0.37221465     0.27900
C69         C  0.17719673  0.40565386  0.45530491     0.44200
N70         N  0.18833248  0.45537889  0.47537796     0.03000
C71         C  0.35425282  0.07000353  0.47231894    -0.04800
H72         H  0.37918622  0.41906690  0.48519149     0.08500
C73         C  0.30233331  0.43281103  0.55730134    -0.05200
Co74       Co  0.25916664  0.99934335  0.45973661     0.74200
N75         N  0.32943878  0.45537864  0.47792205    -0.24400
Co76       Co  0.32774154  0.00005179  0.50208972     0.74100
C77         C  0.33647015  0.41222916  0.54986528     0.44300
N78         N  0.21246940  0.46062117  0.54087665     0.02700
N79         N  0.32632564  0.45958237  0.52764788     0.02800
N80         N  0.30831904  0.06798013  0.44520125    -0.45200
H81         H  0.23026723  0.41671395  0.43320480     0.08500
N82         N  0.30277571  0.45409757  0.46207156     0.03100
N83         N  0.32576492  0.04413391  0.52618728     0.02800
C84         C  0.33803744  0.09269503  0.54709005     0.44400
N85         N  0.18589603  0.45907439  0.52499094    -0.23800
C86         C  0.21287149  0.07221932  0.44460531    -0.04700
N87         N  0.16316766  0.42680117  0.47241941    -0.44900
N88         N  0.35156309  0.07205969  0.52960025    -0.45100
C89         C  0.17846203  0.09239965  0.45225041     0.44200
N90         N  0.30286403  0.04060945  0.46035828     0.03000
N91         N  0.18407642  0.04566772  0.52299039    -0.23800
N92         N  0.21707424  0.45429254  0.46085476    -0.24300
N93         N  0.21067145  0.04657694  0.53889003     0.02700
H94         H  0.13328775  0.08091827  0.51650465     0.08600
H95         H  0.28408392  0.08238791  0.56864108     0.08600
N96         N  0.32925566  0.04100572  0.47637604    -0.24400
N97         N  0.29806815  0.46149409  0.54247255    -0.24000
N98         N  0.18806101  0.04340972  0.47337283     0.03000
C99         C  0.33881882  0.40479757  0.45559793     0.44400
C100        C  0.16307426  0.42819857  0.52877177    -0.05200
N101        N  0.29682988  0.04542389  0.54060819    -0.24000
H102        H  0.28361122  0.42694167  0.57138076     0.08600
N103        N  0.30751062  0.42451593  0.44830005    -0.45200
H104        H  0.13889048  0.41909618  0.51853153     0.08600
C105        C  0.17331927  0.09422430  0.54637315     0.44300
C106        C  0.21236478  0.42388671  0.44742469    -0.04700
Co107      Co  0.18473726  0.00197723  0.49878598     0.73800
N108        N  0.20925532  0.43219131  0.55562849    -0.44900
C109        C  0.34002410  0.08756926  0.45169479     0.44500
N110        N  0.16418538  0.07304763  0.47001954    -0.44900
Co111      Co  0.25337308  0.00414684  0.54104727     0.73900
C112        C  0.30224317  0.07507263  0.55455224    -0.05300
C113        C  0.35385771  0.42531161  0.47510991    -0.04800
N114        N  0.21674468  0.04237869  0.45876574    -0.24300
N115        N  0.35017377  0.43004310  0.53139712    -0.45100
H116        H  0.37912449  0.07755092  0.48244179     0.08500
C117        C  0.15889221  0.07483896  0.52638746    -0.05200
Cl118      Cl  0.25625765  0.00144162  0.50040980    -0.48200
C119        C  0.17896551  0.41057340  0.54899343     0.44300
H120        H  0.23163096  0.07871642  0.43063365     0.08500
N121        N  0.20511369  0.07498538  0.55332995    -0.44900
N122        N  0.37527045  0.30819048  0.62752122    -0.34900
N123        N  0.38648505  0.25023725  0.66224223    -0.55500
N124        N  0.38668431  0.19135329  0.62706764    -0.34900
N125        N  0.37213818  0.24930986  0.59307371    -0.55500
C126        C  0.36937639  0.32938987  0.64619708     0.28700
C127        C  0.36109169  0.32890488  0.61009025     0.28700
C128        C  0.38738328  0.16903013  0.64567708     0.28700
C129        C  0.37669399  0.16828456  0.60971725     0.28700
C130        C  0.39422753  0.28245903  0.67427025     0.37300
C131        C  0.40204709  0.22018102  0.67371571     0.37300
C132        C  0.37103556  0.28082109  0.57970971     0.37300
C133        C  0.37555129  0.21829907  0.57955924     0.37300
C134        C  0.35082206  0.36373151  0.64062094    -0.20200
C135        C  0.34566155  0.36349504  0.61784356    -0.20200
C136        C  0.37807602  0.13121051  0.64008237    -0.20200
C137        C  0.37098879  0.13080431  0.61747081    -0.20200
C138        C  0.41356205  0.27266775  0.69381478    -0.21300
C139        C  0.41851621  0.23318529  0.69346315    -0.21200
C140        C  0.37348365  0.26983464  0.55749049    -0.21300
C141        C  0.37620169  0.23011387  0.55739177    -0.21200
C142        C  0.38437487  0.32056835  0.66766657    -0.16600
C143        C  0.36433564  0.31882794  0.58727684    -0.16600
C144        C  0.37480616  0.17949074  0.58693785    -0.16600
C145        C  0.40071718  0.18104887  0.66691177    -0.16600
H146        H  0.34276642  0.38700724  0.65176492     0.16300
H147        H  0.33264769  0.38654007  0.60807101     0.16300
H148        H  0.37705580  0.10624101  0.65101399     0.16300
H149        H  0.36342163  0.10549361  0.60778061     0.16300
H150        H  0.42367625  0.29194379  0.70679453     0.14600
H151        H  0.43285571  0.21605839  0.70621680     0.14600
H152        H  0.37239113  0.28838259  0.54288750     0.14600
H153        H  0.37781281  0.21198682  0.54269950     0.14600
H154        H  0.39299403  0.28394564  0.62636569     0.27900
H155        H  0.39739464  0.21933631  0.62596993     0.27900
N156        N  0.12025091  0.19173482  0.62699858    -0.34900
N157        N  0.13771795  0.25040910  0.59392607    -0.55500
N158        N  0.13476217  0.30826852  0.62881006    -0.34900
N159        N  0.12055837  0.24927057  0.66279768    -0.55500
C160        C  0.13204674  0.16900554  0.60987976     0.28700
C161        C  0.11801136  0.16901427  0.64538641     0.28700
C162        C  0.15021936  0.32906910  0.61179716     0.28700
C163        C  0.14151356  0.32817762  0.64787989     0.28700
C164        C  0.13544979  0.21963678  0.58013773     0.37300
C165        C  0.14019084  0.28218960  0.58082764     0.37300
C166        C  0.10333923  0.21953044  0.67367094     0.37300
C167        C  0.11365836  0.28138720  0.67505401     0.37300
C168        C  0.13722860  0.13137309  0.61758606    -0.20200
C169        C  0.12804761  0.13133868  0.63992677    -0.20200
C170        C  0.16708242  0.36247249  0.62018718    -0.20200
C171        C  0.16182106  0.36176856  0.64293795    -0.20200
C172        C  0.13651662  0.23189860  0.55806081    -0.21300
C173        C  0.13930621  0.27162058  0.55849472    -0.21200
C174        C  0.08620614  0.23259193  0.69316862    -0.21300
C175        C  0.09281015  0.27184339  0.69407405    -0.21200
C176        C  0.13623584  0.18066426  0.58728920    -0.16600
C177        C  0.10390593  0.18063102  0.66645706    -0.16600
C178        C  0.12594692  0.31910704  0.66917919    -0.16600
C179        C  0.14781785  0.31980537  0.58881659    -0.16600
H180        H  0.14596941  0.10629141  0.60802829     0.16300
H181        H  0.12842767  0.10633984  0.65088453     0.16300
H182        H  0.18147014  0.38519048  0.61087385     0.16300
H183        H  0.17108922  0.38397275  0.65449451     0.16300
H184        H  0.13624993  0.21404542  0.54322795     0.14600
H185        H  0.14192181  0.29039328  0.54405955     0.14600
H186        H  0.07046477  0.21565788  0.70539321     0.14600
H187        H  0.08286191  0.29116357  0.70706581     0.14600
H188        H  0.10978373  0.21985929  0.62582285     0.27900
H189        H  0.11617335  0.28477468  0.62717862     0.27900
C190        C  0.42504131  0.08738001  0.29771650     0.44200
N191        N  0.46078507  0.06984209  0.27032671     0.03000
C192        C  0.46046993  0.41024415  0.20286618    -0.04800
H193        H  0.48828026  0.37171320  0.28463120     0.08500
C194        C  0.10399579  0.45215304  0.28992650    -0.05200
Co195      Co  0.43741595  0.49615636  0.24964334     0.74200
N196        N  0.47289185  0.42622193  0.26973799    -0.24400
Co197      Co  0.01309263  0.43042245  0.24554847     0.74100
C198        C  0.09215752  0.41325853  0.29726838     0.44300
N199        N  0.07402867  0.04917655  0.27411886     0.02700
N200        N  0.05584879  0.43150579  0.27007279     0.02800
N201        N  0.40955014  0.44944809  0.21026412    -0.45200
H202        H  0.39124918  0.02961636  0.29712750     0.08500
N203        N  0.44427931  0.45099623  0.27293125     0.03100
N204        N  0.05652385  0.43821379  0.22141326     0.02800
C205        C  0.09822902  0.43064867  0.19532215     0.44400
N206        N  0.04573129  0.07448302  0.27115429    -0.23800
C207        C  0.40690348  0.03871291  0.20971310    -0.04700
N208        N  0.45407797  0.09863979  0.28428074    -0.44900
N209        N  0.06504357  0.41601554  0.20398185    -0.45100
C210        C  0.41630715  0.07326649  0.19709504     0.44200
N211        N  0.43818077  0.45480989  0.22461431     0.03000
N212        N  0.04894877  0.06984134  0.22246876    -0.23800
N213        N  0.43789073  0.03969518  0.27358293    -0.24300
N214        N  0.07893805  0.04653492  0.22578590     0.02700
H215        H  0.03982814  0.11672702  0.19884326     0.08600
H216        H  0.13502083  0.48175662  0.20737660     0.08600
N217        N  0.46840557  0.43219150  0.22095542    -0.24400
N218        N  0.07954618  0.46110532  0.27301544    -0.24000
N219        N  0.46002006  0.06417553  0.22211360     0.03000
C220        C  0.43534054  0.40573642  0.29716115     0.44400
C221        C  0.04940898  0.10309223  0.28586930    -0.05200
N222        N  0.08247189  0.46581046  0.22453032    -0.24000
H223        H  0.12825235  0.46952856  0.29543903     0.08600
N224        N  0.42027327  0.43925604  0.28895151    -0.45200
H225        H  0.03053356  0.12804437  0.28677195     0.08600
C226        C  0.09698054  0.08162977  0.19816154     0.44300
C227        C  0.41441183  0.04783547  0.29098888    -0.04700
Co228      Co  0.00372359  0.07026820  0.24647798     0.73800
N229        N  0.09833714  0.05993987  0.29025054    -0.44900
C230        C  0.42101248  0.42167308  0.19608321     0.44500
N231        N  0.44923830  0.08835724  0.20592206    -0.44900
Co232      Co  0.07831635  0.50671727  0.24966703     0.73900
C233        C  0.10992394  0.46318063  0.20892748    -0.05300
C234        C  0.46997323  0.39715983  0.28435094    -0.04800
N235        N  0.43500217  0.03573300  0.22486025    -0.24300
N236        N  0.06226593  0.40275575  0.28418632    -0.45100
H237        H  0.47888025  0.38773832  0.19616226     0.08500
C238        C  0.05753418  0.09306162  0.20494084    -0.05200
Cl239      Cl  0.00713807  0.50060638  0.24819052    -0.48200
C240        C  0.08420969  0.09369905  0.29852889     0.44300
H241        H  0.38128949  0.02070570  0.20909936     0.08500
N242        N  0.10784633  0.05260441  0.21175685    -0.44900
C243        C  0.41627998  0.33320948  0.94529904     0.44200
N244        N  0.46382311  0.32482748  0.96769393     0.03000
C245        C  0.08385157  0.16146597  0.97430127    -0.04800
H246        H  0.43348797  0.13337252  0.98245341     0.08500
C247        C  0.43191079  0.21667764  0.05075362    -0.05200
Co248      Co  0.00840462  0.25034314  0.95641877     0.74200
N249        N  0.46823616  0.18372386  0.97465880    -0.24400
Co250      Co  0.00869813  0.18581708  0.00065810     0.74100
C251        C  0.41402916  0.18098472  0.04328021     0.44300
N252        N  0.46098917  0.30631971  0.03378296     0.02700
N253        N  0.46492164  0.19112714  0.02381461     0.02800
N254        N  0.08156298  0.20470259  0.94580335    -0.45200
H255        H  0.43037587  0.27811375  0.92560074     0.08500
N256        N  0.46739901  0.20894466  0.95804809     0.03100
N257        N  0.04962887  0.19228056  0.02612987     0.02800
C258        C  0.09661955  0.18447003  0.04886314     0.44400
N259        N  0.46131492  0.33185405  0.01731674    -0.23800
C260        C  0.07944624  0.29885391  0.94166355    -0.04700
N261        N  0.43477471  0.34881548  0.96301608    -0.44900
N262        N  0.07890004  0.16873073  0.03095914    -0.45100
C263        C  0.09753101  0.33467178  0.94873125     0.44200
N264        N  0.05217733  0.20940806  0.95970646     0.03000
N265        N  0.04570070  0.33215278  0.01882551    -0.23800
N266        N  0.46505678  0.29488490  0.95401451    -0.24300
N267        N  0.04538232  0.30718912  0.03559621     0.02700
H268        H  0.08340477  0.38046388  0.01096134     0.08600
H269        H  0.08107505  0.23894982  0.06874627     0.08600
N270        N  0.05264635  0.18457376  0.97652299    -0.24400
N271        N  0.46299868  0.22084218  0.03761068    -0.24000
N272        N  0.04777331  0.32442011  0.96913468     0.03000
C273        C  0.42110062  0.16988497  0.95103343     0.44400
C274        C  0.43058448  0.35555680  0.01977520    -0.05200
N275        N  0.04748315  0.22195418  0.03993725    -0.24000
H276        H  0.42326693  0.23597527  0.06404444     0.08600
N277        N  0.43957292  0.20159567  0.94340170    -0.45200
H278        H  0.42328516  0.37983854  0.00910519     0.08600
C279        C  0.09363186  0.34399939  0.04279561     0.44300
C280        C  0.43613698  0.29784291  0.93920321    -0.04700
Co281      Co  0.00401192  0.32806726  0.99324595     0.73800
N282        N  0.43158253  0.31109197  0.04764373    -0.44900
C283        C  0.10296845  0.17538672  0.95405224     0.44500
N284        N  0.07634456  0.34943939  0.96563007    -0.44900
Co285      Co  0.00425370  0.26326779  0.03748150     0.73900
C286        C  0.07600338  0.21931453  0.05500708    -0.05300
C287        C  0.43988054  0.15768454  0.97164211    -0.04800
N288        N  0.04906962  0.29465794  0.95533963    -0.24300
N289        N  0.43607555  0.16621104  0.02675986    -0.45100
H290        H  0.09175161  0.13777178  0.98526658     0.08500
C291        C  0.07547272  0.35682931  0.02192775    -0.05200
Cl292      Cl  0.00632814  0.25691724  0.99694809    -0.48200
C293        C  0.41092531  0.34119102  0.03975989     0.44300
H294        H  0.08747931  0.27948308  0.92828014     0.08500
N295        N  0.07344765  0.31331739  0.05027263    -0.44900
N296        N  0.31262102  0.38162861  0.86721845    -0.34900
N297        N  0.25495000  0.37424849  0.90250853    -0.55500
N298        N  0.19436319  0.39198981  0.87011561    -0.34900
N299        N  0.25184798  0.39702789  0.83468027    -0.55500
C300        C  0.33310300  0.36410943  0.88370954     0.28700
C301        C  0.33089274  0.37374199  0.84771634     0.28700
C302        C  0.17202790  0.38266789  0.88791841     0.28700
C303        C  0.17048665  0.39748175  0.85238484     0.28700
C304        C  0.28716333  0.37152495  0.91526335     0.37300
C305        C  0.22442272  0.37391522  0.91659849     0.37300
C306        C  0.28340026  0.40416655  0.82199554     0.37300
C307        C  0.22120507  0.41267421  0.82381868     0.37300
C308        C  0.36461390  0.34480223  0.87465259    -0.20200
C309        C  0.36284010  0.35031335  0.85191494    -0.20200
C310        C  0.13333661  0.38325639  0.88153668    -0.20200
C311        C  0.13231645  0.39305370  0.85931905    -0.20200
C312        C  0.27713619  0.36940144  0.93765832    -0.21300
C313        C  0.23731293  0.37055629  0.93848609    -0.21200
C314        C  0.27288069  0.42469503  0.80298365    -0.21300
C315        C  0.23345952  0.42984095  0.80405002    -0.21200
C316        C  0.32485959  0.36614145  0.90677411    -0.16600
C317        C  0.32081237  0.38949408  0.82654932    -0.16600
C318        C  0.18206936  0.40873445  0.83053448    -0.16600
C319        C  0.18509616  0.37489007  0.90996177    -0.16600
H320        H  0.38634899  0.32803525  0.88349347     0.16300
H321        H  0.38305021  0.33857649  0.83989306     0.16300
H322        H  0.10818931  0.37804563  0.89190735     0.16300
H323        H  0.10604021  0.39724866  0.84973734     0.16300
H324        H  0.29638431  0.36590600  0.95183575     0.14600
H325        H  0.21984503  0.36888110  0.95346425     0.14600
H326        H  0.29145037  0.43450939  0.78956008     0.14600
H327        H  0.21594116  0.44421854  0.79150321     0.14600
H328        H  0.29029422  0.40153351  0.86950162     0.27900
H329        H  0.22387980  0.39697372  0.87036648     0.27900
N330        N  0.26086496  0.12926792  0.90825073    -0.34900
N331        N  0.31922194  0.10252740  0.87635334    -0.55500
N332        N  0.25817969  0.08696820  0.84412486    -0.34900
N333        N  0.19921717  0.10990810  0.87657221    -0.55500
C334        C  0.29274718  0.13041866  0.92140669     0.28700
C335        C  0.22956717  0.13328286  0.92165652     0.28700
C336        C  0.28848824  0.06887217  0.83410521     0.28700
C337        C  0.22526783  0.07525302  0.83370105     0.28700
C338        C  0.34320241  0.11504412  0.89271313     0.37300
C339        C  0.34207855  0.09111095  0.85923022     0.37300
C340        C  0.17834265  0.12890750  0.89223397     0.37300
C341        C  0.17678398  0.10828680  0.85800191     0.37300
C342        C  0.28165442  0.13585477  0.94345059    -0.20200
C343        C  0.24177483  0.13749243  0.94362330    -0.20200
C344        C  0.27445460  0.04559752  0.81702281    -0.20200
C345        C  0.23477430  0.04948715  0.81684873    -0.20200
C346        C  0.38147952  0.11080734  0.88616125    -0.21300
C347        C  0.38081800  0.09511711  0.86522165    -0.21200
C348        C  0.14236152  0.13904954  0.88367107    -0.21300
C349        C  0.14160640  0.12658662  0.86192964    -0.21200
C350        C  0.33158017  0.12807856  0.91404160    -0.16600
C351        C  0.19060170  0.13606006  0.91440397    -0.16600
C352        C  0.18709425  0.08885695  0.83798960    -0.16600
C353        C  0.32852538  0.07451676  0.83898412    -0.16600
H354        H  0.30035302  0.13837641  0.95792533     0.16300
H355        H  0.22386154  0.14188582  0.95823113     0.16300
H356        H  0.29084968  0.02772310  0.80562613     0.16300
H357        H  0.21518627  0.03506558  0.80543684     0.16300
H358        H  0.40735304  0.11706307  0.89575999     0.14600
H359        H  0.40635638  0.08657145  0.85604147     0.14600
H360        H  0.11927826  0.15444687  0.89208410     0.14600
H361        H  0.11780262  0.13089428  0.85039315     0.14600
H362        H  0.26071609  0.12984263  0.89095246     0.27900
H363        H  0.26003737  0.10953997  0.85547418     0.27900
C364        C  0.43129191  0.41357530  0.69025150     0.44200
N365        N  0.43962780  0.45649667  0.71560382     0.03000
C366        C  0.10207651  0.07410877  0.72609090    -0.04800
H367        H  0.12550731  0.41695210  0.72502082     0.08500
C368        C  0.05628975  0.41714138  0.79807421    -0.05200
Co369      Co  0.01108835  0.50512719  0.70497022     0.74200
N370        N  0.07971803  0.45920953  0.71982118    -0.24400
Co371      Co  0.07787430  0.49615087  0.74763909     0.74100
C372        C  0.09471527  0.40372642  0.79110010     0.44300
N373        N  0.45983498  0.44656412  0.78211315     0.02700
N374        N  0.07524641  0.44920340  0.76914242     0.02800
N375        N  0.05688922  0.07760399  0.69871296    -0.45200
H376        H  0.48323389  0.43523056  0.66997544     0.08500
N377        N  0.05453751  0.46411093  0.70346068     0.03100
N378        N  0.07535385  0.02957086  0.77622993     0.02800
C379        C  0.09385008  0.05984153  0.80580080     0.44400
N380        N  0.43381753  0.44827300  0.76593105    -0.23800
C381        C  0.46054023  0.07731294  0.69533482    -0.04700
N382        N  0.41668421  0.42724604  0.70971481    -0.44900
N383        N  0.10456704  0.04944216  0.78495007    -0.45100
C384        C  0.42362853  0.09251492  0.70319369     0.44200
N385        N  0.05323202  0.04550591  0.71059731     0.03000
N386        N  0.43261699  0.02903279  0.77014462    -0.23800
N387        N  0.46789204  0.46235536  0.70111894    -0.24300
N388        N  0.45849225  0.02779302  0.78645190     0.02700
H389        H  0.37679284  0.05655839  0.76691841     0.08600
H390        H  0.03940903  0.04112082  0.82485483     0.08600
N391        N  0.07917340  0.04259579  0.72674464    -0.24400
N392        N  0.04686598  0.44560896  0.78375224    -0.24000
N393        N  0.43674395  0.04014795  0.72102825     0.03000
C394        C  0.08797927  0.41527252  0.69298184     0.44400
C395        C  0.40425992  0.42474247  0.77138195    -0.05200
N396        N  0.04604797  0.02578736  0.79026248    -0.24000
H397        H  0.04137939  0.41124318  0.81359958     0.08600
N398        N  0.05874844  0.43890322  0.68713188    -0.45200
H399        H  0.37607101  0.42540705  0.76342340     0.08600
C400        C  0.41432381  0.06694404  0.79802595     0.44300
C401        C  0.46458682  0.43698932  0.68444449    -0.04700
Co402      Co  0.43458113  0.49409564  0.74304141     0.73800
N403        N  0.44954087  0.42307440  0.79848411    -0.44900
C404        C  0.08684535  0.09737954  0.70757271     0.44500
N405        N  0.41013979  0.06778595  0.71892040    -0.44900
Co406      Co  0.00257264  0.48702790  0.78572983     0.73900
C407        C  0.05501968  0.04419057  0.80929178    -0.05300
C408        C  0.10232576  0.42850279  0.71477409    -0.04800
N409        N  0.46621959  0.04512452  0.70731789    -0.24300
N410        N  0.10422339  0.42507067  0.77302846    -0.45100
H411        H  0.12643300  0.07975337  0.73701604     0.08500
C412        C  0.40370920  0.05278042  0.77598891    -0.05200
Cl413      Cl  0.00674390  0.49552646  0.74531429    -0.48200
C414        C  0.41449634  0.40853179  0.79335108     0.44300
H415        H  0.47881391  0.08730695  0.68183745     0.08500
N416        N  0.44819852  0.04956218  0.80368452    -0.44900
N417        N  0.25991219  0.10410306  0.15534794    -0.34900
N418        N  0.31796576  0.11768317  0.12041861    -0.55500
N419        N  0.25744927  0.14138642  0.09039970    -0.34900
N420        N  0.19871083  0.12518285  0.12493756    -0.55500
C421        C  0.29095353  0.08437010  0.16344486     0.28700
C422        C  0.22793644  0.09138767  0.16642152     0.28700
C423        C  0.28740914  0.13956288  0.07590324     0.28700
C424        C  0.22448946  0.14251612  0.07822181     0.28700
C425        C  0.34206974  0.10932873  0.13755815     0.37300
C426        C  0.34040787  0.13097130  0.10357240     0.37300
C427        C  0.17960079  0.12804790  0.14457841     0.37300
C428        C  0.17858407  0.14662596  0.11001244     0.37300
C429        C  0.27851724  0.05896087  0.17998833    -0.20200
C430        C  0.23893257  0.06322143  0.18176419    -0.20200
C431        C  0.27337457  0.13991108  0.05418184    -0.20200
C432        C  0.23353167  0.14156996  0.05563935    -0.20200
C433        C  0.38017626  0.11672212  0.13132846    -0.21300
C434        C  0.37902307  0.13089692  0.10995741    -0.21200
C435        C  0.14787863  0.15243730  0.14222596    -0.21300
C436        C  0.14671316  0.16348004  0.12016485    -0.21200
C437        C  0.33040851  0.09072605  0.15751652    -0.16600
C438        C  0.18964736  0.10639846  0.16382937    -0.16600
C439        C  0.18715337  0.14871130  0.08705625    -0.16600
C440        C  0.32696219  0.13982346  0.08189029    -0.16600
H441        H  0.29600600  0.03944780  0.18998703     0.16300
H442        H  0.22054266  0.04723510  0.19313706     0.16300
H443        H  0.29010790  0.13941468  0.03890201     0.16300
H444        H  0.21358616  0.14307353  0.04167190     0.16300
H445        H  0.40651997  0.11129172  0.14061606     0.14600
H446        H  0.40398076  0.13869563  0.09997508     0.14600
H447        H  0.12780344  0.16174829  0.15499022     0.14600
H448        H  0.12523016  0.18221271  0.11252019     0.14600
H449        H  0.26112524  0.12795855  0.14471627     0.27900
H450        H  0.25936634  0.14652726  0.10745560     0.27900
N451        N  0.25495041  0.37844640  0.08812030    -0.34900
N452        N  0.31707909  0.39064087  0.12095271    -0.55500
N453        N  0.25802933  0.39592250  0.15518529    -0.34900
N454        N  0.19638440  0.38768730  0.12196659    -0.55500
C455        C  0.28612535  0.38327118  0.07477410     0.28700
C456        C  0.22285053  0.38243986  0.07525925     0.28700
C457        C  0.28985883  0.41096445  0.16533227     0.28700
C458        C  0.22636120  0.40993658  0.16586931     0.28700
C459        C  0.33637191  0.37377832  0.10394039     0.37300
C460        C  0.33846704  0.38441023  0.13961461     0.37300
C461        C  0.17483325  0.37240335  0.10532234     0.37300
C462        C  0.17629740  0.38222552  0.14105203     0.37300
C463        C  0.27379051  0.39083266  0.05311411    -0.20200
C464        C  0.23374390  0.39033527  0.05342730    -0.20200
C465        C  0.27816008  0.43543215  0.18240549    -0.20200
C466        C  0.23822020  0.43475821  0.18275512    -0.20200
C467        C  0.37007958  0.35652739  0.11178540    -0.21300
C468        C  0.37101791  0.36261064  0.13448792    -0.21200
C469        C  0.14089434  0.35686936  0.11384140    -0.21300
C470        C  0.14216159  0.36245176  0.13657705    -0.21200
C471        C  0.32477350  0.37581527  0.08133610    -0.16600
C472        C  0.18463775  0.37473199  0.08249068    -0.16600
C473        C  0.18741208  0.39845688  0.16175589    -0.16600
C474        C  0.32885747  0.40017938  0.16068166    -0.16600
H475        H  0.29175674  0.39479980  0.03847809     0.16300
H476        H  0.21486829  0.39393428  0.03909573     0.16300
H477        H  0.29636570  0.45205866  0.19355984     0.16300
H478        H  0.22009379  0.45077092  0.19422957     0.16300
H479        H  0.39135234  0.34058978  0.10221511     0.14600
H480        H  0.39270303  0.35125183  0.14582268     0.14600
H481        H  0.11782083  0.34278248  0.10466969     0.14600
H482        H  0.12034120  0.35302360  0.14835186     0.14600
H483        H  0.25579182  0.36753010  0.10433128     0.27900
H484        H  0.25800330  0.37371855  0.14343411     0.27900
C485        C  0.15738341  0.08243194  0.82003156    -0.14700
C486        C  0.12160084  0.06851969  0.82400705    -0.29900
H487        H  0.16631441  0.08688020  0.80280859     0.14300
H488        H  0.11255717  0.06249236  0.84103234     0.14900
C489        C  0.35753838  0.05992437  0.82242187    -0.14700
C490        C  0.38649125  0.08209134  0.81442488    -0.29900
H491        H  0.35446204  0.03060125  0.81614579     0.14300
H492        H  0.38993244  0.11177631  0.81999762     0.14900
C493        C  0.15177348  0.41799094  0.81366006    -0.14700
C494        C  0.12446685  0.39239395  0.80741937    -0.29900
H495        H  0.15267701  0.44632755  0.80571403     0.14300
H496        H  0.12279603  0.36398344  0.81518229     0.14900
C497        C  0.34982217  0.39042635  0.80801248    -0.14700
C498        C  0.38680569  0.40070826  0.81149278    -0.29900
H499        H  0.33980557  0.38606467  0.79099086     0.14300
H500        H  0.39679685  0.40650588  0.82837480     0.14900
C501        C  0.15613179  0.15885063  0.07194250    -0.11600
C502        C  0.12929269  0.16873275  0.06042778    -0.13100
C503        C  0.35550769  0.15022097  0.06516492    -0.11600
C504        C  0.38165417  0.16218113  0.05371792    -0.13100
C505        C  0.15438980  0.36756393  0.06603086    -0.11600
C506        C  0.12738792  0.35894222  0.05410332    -0.13100
C507        C  0.35342621  0.36755515  0.06430162    -0.11600
C508        C  0.37891029  0.35776428  0.05172688    -0.13100
C509        C  0.12970940  0.35322381  0.93793563    -0.11600
C510        C  0.15589079  0.36497886  0.92643622    -0.13100
C511        C  0.38326597  0.34911387  0.93393684    -0.11600
C512        C  0.35613058  0.35809280  0.92230438    -0.13100
C513        C  0.16137092  0.14789348  0.93046530    -0.11600
C514        C  0.13547504  0.15899601  0.94240558    -0.13100
C515        C  0.38851638  0.15246551  0.94015124    -0.11600
C516        C  0.36184581  0.14008158  0.92931720    -0.13100
C517        C  0.39727831  0.40965375  0.17666607    -0.14700
C518        C  0.35842531  0.40575742  0.17900136    -0.29900
H519        H  0.41146772  0.40753758  0.16061673     0.14300
H520        H  0.34710064  0.40865352  0.19584546     0.14900
C521        C  0.12088651  0.41468759  0.17672902    -0.14700
C522        C  0.15845071  0.40532857  0.17995861    -0.29900
H523        H  0.10799906  0.41568700  0.16022040     0.14300
H524        H  0.16941909  0.40622982  0.19699577     0.14900
C525        C  0.36065578  0.07278398  0.17185954    -0.14700
C526        C  0.38938220  0.09296427  0.18170864    -0.29900
H527        H  0.35814635  0.04187904  0.17487254     0.14300
H528        H  0.39245333  0.12387060  0.17883508     0.14900
C529        C  0.12150322  0.09568828  0.17952993    -0.14700
C530        C  0.16052711  0.09819218  0.18204514    -0.29900
H531        H  0.10747084  0.10103778  0.16362558     0.14300
H532        H  0.17212437  0.09190488  0.19855561     0.14900
C533        C  0.08544519  0.15023825  0.68032619    -0.14700
C534        C  0.10377593  0.13243403  0.69732172    -0.29900
H535        H  0.05767062  0.13934395  0.67448719     0.14300
H536        H  0.13198415  0.14254451  0.70289925     0.14900
C537        C  0.09975511  0.38294250  0.67857357    -0.14700
C538        C  0.11940516  0.35142453  0.68532213    -0.29900
H539        H  0.08909963  0.38410906  0.66147195     0.14300
H540        H  0.12733337  0.34788909  0.70278390     0.14900
C541        C  0.42051477  0.15172324  0.68099732    -0.14700
C542        C  0.40172778  0.12480320  0.69304024    -0.29900
H543        H  0.45200286  0.15167177  0.68044061     0.14300
H544        H  0.37035226  0.12567134  0.69455612     0.14900
C545        C  0.39331783  0.35328071  0.68315808    -0.14700
C546        C  0.41598335  0.38237602  0.67603509    -0.29900
H547        H  0.38510736  0.35141553  0.70063897     0.14300
H548        H  0.42670787  0.38171788  0.65896796     0.14900
C549        C  0.36810870  0.14950730  0.57045143    -0.11600
C550        C  0.35761633  0.12368556  0.55834608    -0.13100
C551        C  0.35083111  0.37711638  0.55959550    -0.11600
C552        C  0.35831439  0.34922723  0.57093407    -0.13100
C553        C  0.15590630  0.12541537  0.55868699    -0.11600
C554        C  0.14504541  0.15100657  0.57088795    -0.13100
C555        C  0.15666581  0.35015125  0.57278762    -0.11600
C556        C  0.16552464  0.37702551  0.56091921    -0.13100
C557        C  0.10342082  0.11894837  0.31522048    -0.14700
C558        C  0.08940072  0.15473008  0.31936608    -0.29900
H559        H  0.12896113  0.10844431  0.32399701     0.14300
H560        H  0.06508138  0.16562308  0.30969901     0.14900
C561        C  0.10917032  0.38753492  0.31460135    -0.14700
C562        C  0.09500269  0.35139074  0.31747506    -0.29900
H563        H  0.13283158  0.39802503  0.32492678     0.14300
H564        H  0.07230314  0.34127705  0.30630554     0.14900
C565        C  0.15020632  0.15235534  0.43041237    -0.11600
C566        C  0.16105140  0.12544995  0.44167684    -0.13100
C567        C  0.14528080  0.35221317  0.43049213    -0.11600
C568        C  0.15644286  0.37680865  0.44312785    -0.13100
C569        C  0.40569834  0.14914320  0.31447568    -0.14700
C570        C  0.41219425  0.11071138  0.31702344    -0.29900
H571        H  0.40689592  0.16052499  0.29754087     0.14300
H572        H  0.41216584  0.09692793  0.33329657     0.14900
C573        C  0.41607970  0.37883470  0.31289824    -0.14700
C574        C  0.43578838  0.34880723  0.32195117    -0.29900
H575        H  0.38572340  0.38338965  0.31691528     0.14300
H576        H  0.46611985  0.34472896  0.31775026     0.14900
C577        C  0.36354228  0.14726389  0.42799103    -0.11600
C578        C  0.35477487  0.12052605  0.43990369    -0.13100
C579        C  0.36727287  0.34725005  0.43140884    -0.11600
C580        C  0.35600596  0.37293145  0.44353539    -0.13100
N581        N  0.37057736  0.74772891  0.40651574    -0.34900
N582        N  0.38834796  0.80827173  0.37554230    -0.55500
N583        N  0.39775027  0.75041587  0.33980934    -0.34900
N584        N  0.38278951  0.68915165  0.37127341    -0.55500
C585        C  0.37359264  0.77783757  0.42083566     0.28700
C586        C  0.37287000  0.71483393  0.41869062     0.28700
C587        C  0.41601366  0.78161654  0.33092197     0.28700
C588        C  0.40903891  0.71869211  0.32805090     0.28700
C589        C  0.37614318  0.83056280  0.39271783     0.37300
C590        C  0.39413903  0.83226931  0.35800978     0.37300
C591        C  0.36449809  0.66860281  0.38730645     0.37300
C592        C  0.37750998  0.66971744  0.35190645     0.37300
C593        C  0.37775733  0.76393668  0.44245747    -0.20200
C594        C  0.37756089  0.72406844  0.44109861    -0.20200
C595        C  0.43858995  0.76959528  0.31302996    -0.20200
C596        C  0.43435686  0.73011817  0.31129422    -0.20200
C597        C  0.37417000  0.86895160  0.38608500    -0.21300
C598        C  0.38608124  0.87014256  0.36425584    -0.21200
C599        C  0.34714246  0.63615122  0.37811183    -0.21300
C600        C  0.35473393  0.63728521  0.35557556    -0.21200
C601        C  0.37044611  0.81729235  0.41481621    -0.16600
C602        C  0.36596041  0.67732344  0.41029635    -0.16600
C603        C  0.39580346  0.68006451  0.33161804    -0.16600
C604        C  0.41121686  0.82089824  0.33756647    -0.16600
H605        H  0.38020899  0.78075452  0.45762399     0.16300
H606        H  0.37927695  0.70419217  0.45508931     0.16300
H607        H  0.45631313  0.78732361  0.30216835     0.16300
H608        H  0.44880571  0.71208609  0.29912590     0.16300
H609        H  0.36656359  0.89378575  0.39616337     0.14600
H610        H  0.38939065  0.89634037  0.35455570     0.14600
H611        H  0.33051353  0.61415779  0.38673449     0.14600
H612        H  0.34446367  0.61661856  0.34338535     0.14600
H613        H  0.36220456  0.74934123  0.38985104     0.27900
H614        H  0.37600684  0.75127286  0.35181760     0.27900
N615        N  0.12435690  0.69143693  0.37500797    -0.34900
N616        N  0.10709612  0.75229019  0.34282245    -0.55500
N617        N  0.12463448  0.81111789  0.37577444    -0.34900
N618        N  0.13756503  0.75021193  0.40897751    -0.55500
C619        C  0.10716200  0.67033955  0.35875384     0.28700
C620        C  0.12422345  0.66957887  0.39379219     0.23900
C621        C  0.10777272  0.83314773  0.35970246     0.28700
C622        C  0.12348335  0.83167420  0.39496411     0.28700
C623        C  0.10556136  0.72117688  0.32916432     0.37300
C624        C  0.10629789  0.78396674  0.32945191     0.37300
C625        C  0.14881181  0.71857508  0.42068732     0.37300
C626        C  0.14828009  0.78127176  0.42119530     0.37300
C627        C  0.09614319  0.63463348  0.36734201    -0.20200
C628        C  0.10731955  0.63400211  0.38937386    -0.20200
C629        C  0.09592201  0.86810581  0.36880451    -0.20200
C630        C  0.10617718  0.86731463  0.39099737    -0.20200
C631        C  0.10394325  0.73317091  0.30704665    -0.21300
C632        C  0.10449414  0.77285621  0.30722249    -0.21200
C633        C  0.16635741  0.72955490  0.44053585    -0.21300
C634        C  0.16601240  0.76932558  0.44086357    -0.21200
C635        C  0.10188211  0.68225495  0.33632039    -0.16600
C636        C  0.14074236  0.68004003  0.41448585    -0.16600
C637        C  0.13947658  0.82003830  0.41565698    -0.16600
C638        C  0.10337839  0.82267273  0.33700816    -0.16600
H639        H  0.08138125  0.61136926  0.35877921     0.16300
H640        H  0.10307882  0.61018029  0.40090780     0.16300
H641        H  0.08114571  0.89173569  0.36045819     0.16300
H642        H  0.10114345  0.89026991  0.40292200     0.16300
H643        H  0.10197206  0.71519730  0.29230261     0.14600
H644        H  0.10300399  0.79139264  0.29262741     0.14600
H645        H  0.17754972  0.71086905  0.45360153     0.14600
H646        H  0.17690070  0.78735314  0.45423708     0.14600
H647        H  0.13885585  0.71755552  0.37288577     0.27900
H648        H  0.13955263  0.78528714  0.37333703     0.27900
C649        C  0.17652585  0.90891660  0.45407610     0.44200
N650        N  0.18728208  0.95827716  0.47459538     0.03000
C651        C  0.35237000  0.57038815  0.47114227    -0.04800
H652        H  0.37524225  0.91735058  0.48565914     0.08500
C653        C  0.29927076  0.93239214  0.55719940    -0.05200
Co654      Co  0.25961874  0.49629629  0.45973795     0.74200
N655        N  0.32750712  0.95601433  0.47793822    -0.24400
Co656      Co  0.32891373  0.50004476  0.50165258     0.74100
C657        C  0.33297755  0.91119538  0.54963663     0.44300
N658        N  0.21030990  0.96250239  0.54060343     0.02700
N659        N  0.32388691  0.95913442  0.52771655     0.02800
N660        N  0.30608504  0.56590169  0.44432106    -0.45200
H661        H  0.22959068  0.92082555  0.43211685     0.08500
N662        N  0.30131529  0.95606915  0.46179925     0.03100
N663        N  0.32630415  0.54465560  0.52543659     0.02800
C664        C  0.33759617  0.59394015  0.54602043     0.44400
N665        N  0.18413430  0.96090851  0.52449547    -0.23800
C666        C  0.21134612  0.56685051  0.44317492    -0.04700
N667        N  0.16263607  0.92920484  0.47159867    -0.44900
N668        N  0.35150874  0.57321111  0.52864554    -0.45100
C669        C  0.17662356  0.58682696  0.45051219     0.44200
N670        N  0.30218277  0.53855922  0.45963949     0.03000
N671        N  0.18532941  0.54423251  0.52273675    -0.23800
N672        N  0.21578219  0.95801991  0.45989409    -0.24300
N673        N  0.21204128  0.54527895  0.53855264     0.02700
H674        H  0.13619150  0.58131041  0.51534265     0.08600
H675        H  0.28443981  0.58240892  0.56795527     0.08600
N676        N  0.32877762  0.54036550  0.47551814    -0.24400
N677        N  0.29564988  0.96143887  0.54252868    -0.24000
N678        N  0.18807140  0.54009283  0.47301300     0.03000
C679        C  0.33545686  0.90539537  0.45547529     0.44400
C680        C  0.16038838  0.93084943  0.52857513    -0.05200
N681        N  0.29756531  0.54545599  0.53998954    -0.24000
H682        H  0.28044968  0.92672173  0.57126312     0.08600
N683        N  0.30521264  0.92647107  0.44794830    -0.45200
H684        H  0.13607569  0.92199934  0.51835921     0.08600
C685        C  0.17686945  0.59499255  0.54489992     0.44300
C686        C  0.21120514  0.92797926  0.44613227    -0.04700
Co687      Co  0.18572953  0.49972669  0.49902535     0.73800
N688        N  0.20596487  0.93506778  0.55579255    -0.44900
C689        C  0.33694918  0.58697657  0.45051807     0.44500
N690        N  0.16348384  0.56893288  0.46907376    -0.44900
Co691      Co  0.25497211  0.50327124  0.54090455     0.73900
C692        C  0.30238296  0.57551266  0.55370652    -0.05300
C693        C  0.35072330  0.92498430  0.47523575    -0.04800
N694        N  0.21632202  0.53840288  0.45815860    -0.24300
N695        N  0.34715619  0.92911567  0.53134308    -0.45100
H696        H  0.37698970  0.57928778  0.48109633     0.08500
C697        C  0.16134495  0.57463920  0.52548038    -0.05200
Cl698      Cl  0.25734034  0.49991409  0.50031146    -0.48200
C699        C  0.17519562  0.91416455  0.54934542     0.44300
H700        H  0.22975740  0.57273792  0.42896112     0.08500
N701        N  0.20787882  0.57499958  0.55221843    -0.44900
N702        N  0.37589173  0.80821744  0.62710754    -0.34900
N703        N  0.38925943  0.75075771  0.66179377    -0.55500
N704        N  0.38749529  0.69161504  0.62684461    -0.34900
N705        N  0.37113245  0.74904561  0.59298299    -0.55500
C706        C  0.37059241  0.82938488  0.64583102     0.28700
C707        C  0.36049561  0.82860072  0.60991713     0.28700
C708        C  0.38886925  0.66959243  0.64554708     0.28700
C709        C  0.37680394  0.66833509  0.60973646     0.28700
C710        C  0.39866129  0.78319583  0.67315388     0.37300
C711        C  0.40657725  0.72107098  0.67267795     0.37300
C712        C  0.37016939  0.78052319  0.57959199     0.37300
C713        C  0.37519257  0.71805396  0.57951718     0.37300
C714        C  0.35124186  0.86342746  0.64054487    -0.20200
C715        C  0.34494273  0.86300590  0.61786172    -0.20200
C716        C  0.37914150  0.63172894  0.64027360    -0.20200
C717        C  0.37123710  0.63099596  0.61773338    -0.20200
C718        C  0.42117559  0.77402022  0.69164028    -0.21300
C719        C  0.42619852  0.73455687  0.69134104    -0.21200
C720        C  0.37331526  0.76954178  0.55740881    -0.21300
C721        C  0.37637669  0.72984020  0.55735576    -0.21200
C722        C  0.38707857  0.82088954  0.66694094    -0.16600
C723        C  0.36298895  0.81845036  0.58711365    -0.16600
C724        C  0.37459097  0.67927751  0.58693146    -0.16600
C725        C  0.40369048  0.68184824  0.66639842    -0.16600
H726        H  0.34348176  0.88666290  0.65178644     0.16300
H727        H  0.33116503  0.88582858  0.60826451     0.16300
H728        H  0.37864602  0.60691599  0.65134329     0.16300
H729        H  0.36337103  0.60556911  0.60822488     0.16300
H730        H  0.43318283  0.79368660  0.70387507     0.14600
H731        H  0.44254856  0.71775521  0.70341859     0.14600
H732        H  0.37253594  0.78808431  0.54279898     0.14600
H733        H  0.37860618  0.71170360  0.54269565     0.14600
H734        H  0.39399031  0.78428030  0.62567760     0.27900
H735        H  0.39848468  0.71946210  0.62544020     0.27900
N736        N  0.12764528  0.69235985  0.62596117    -0.34900
N737        N  0.14688222  0.75182121  0.59365224    -0.55500
N738        N  0.14190858  0.80893250  0.62916212    -0.34900
N739        N  0.12798792  0.74891658  0.66252139    -0.55500
C740        C  0.13809018  0.66979230  0.60846831     0.28700
C741        C  0.12268159  0.66884711  0.64381493     0.28700
C742        C  0.15535621  0.83094303  0.61211575     0.28700
C743        C  0.14759867  0.82906565  0.64825408     0.28700
C744        C  0.14500376  0.72150784  0.57951204     0.37300
C745        C  0.14797521  0.78401660  0.58086196     0.37300
C746        C  0.11155898  0.71866625  0.67338109     0.37300
C747        C  0.12247190  0.78049028  0.67551391     0.37300
C748        C  0.13957379  0.63140953  0.61538313    -0.20200
C749        C  0.12951116  0.63079438  0.63758482    -0.20200
C750        C  0.16994767  0.86541734  0.62046364    -0.20200
C751        C  0.16536508  0.86408764  0.64325734    -0.20200
C752        C  0.14579626  0.73443738  0.55756589    -0.21300
C753        C  0.14735709  0.77413834  0.55841506    -0.21200
C754        C  0.09676851  0.73082006  0.69370501    -0.21300
C755        C  0.10377043  0.76994728  0.69508749    -0.21200
C756        C  0.14407490  0.68232222  0.58616017    -0.16600
C757        C  0.10963307  0.68025048  0.66520255    -0.16600
C758        C  0.13306863  0.81882541  0.66964482    -0.16600
C759        C  0.15260900  0.82185653  0.58914581    -0.16600
H760        H  0.14640601  0.60626053  0.60538065     0.16300
H761        H  0.12739145  0.60516962  0.64797389     0.16300
H762        H  0.18229660  0.88924183  0.61108865     0.16300
H763        H  0.17326254  0.88683645  0.65480052     0.16300
H764        H  0.14520084  0.71709556  0.54253610     0.14600
H765        H  0.14871295  0.79344100  0.54415246     0.14600
H766        H  0.08192351  0.71346218  0.70610050     0.14600
H767        H  0.09512670  0.78860296  0.70869638     0.14600
H768        H  0.11987093  0.72130406  0.62534483     0.27900
H769        H  0.12470123  0.78450503  0.62747587     0.27900
C770        C  0.42394227  0.58811862  0.29793022     0.44200
N771        N  0.46051813  0.57071554  0.27083971     0.03000
C772        C  0.46137487  0.90436619  0.20583299    -0.04800
H773        H  0.48594615  0.87148884  0.28764216     0.08500
C774        C  0.10326247  0.95108368  0.29189590    -0.05200
Co775      Co  0.43868472  0.99467537  0.24982983     0.74200
N776        N  0.47224684  0.92541549  0.27158374    -0.24400
Co777      Co  0.01411430  0.92893170  0.24657998     0.74100
C778        C  0.09011245  0.91279763  0.29955453     0.44300
N779        N  0.07213382  0.55022273  0.27377642     0.02700
N780        N  0.05592209  0.93047678  0.27143170     0.02800
N781        N  0.41284906  0.94753522  0.21041112    -0.45200
H782        H  0.38962900  0.53076457  0.29656862     0.08500
N783        N  0.44366875  0.95055003  0.27370810     0.03100
N784        N  0.05866451  0.93502179  0.22283419     0.02800
C785        C  0.10342926  0.92376441  0.19884161     0.44400
N786        N  0.04323051  0.57498197  0.27133044    -0.23800
C787        C  0.40387220  0.54216957  0.21022016    -0.04700
N788        N  0.45337816  0.59946728  0.28478149    -0.44900
N789        N  0.06862421  0.91107541  0.20642699    -0.45100
C790        C  0.41283156  0.57748022  0.19807209     0.44200
N791        N  0.44078589  0.95282300  0.22518063     0.03000
N792        N  0.04551830  0.57259638  0.22266276    -0.23800
N793        N  0.43750996  0.54053555  0.27384265    -0.24300
N794        N  0.07603659  0.54983525  0.22544495     0.02700
H795        H  0.03533253  0.62129894  0.20047010     0.08600
H796        H  0.13968476  0.97548453  0.21052232     0.08600
N797        N  0.47008645  0.92850979  0.22287288    -0.24400
N798        N  0.07990401  0.95981206  0.27444683    -0.24000
N799        N  0.45737380  0.56706867  0.22253458     0.03000
C800        C  0.43254800  0.90670759  0.29838148     0.44400
C801        C  0.04652676  0.60305636  0.28635504    -0.05200
N802        N  0.08489764  0.96232857  0.22608050    -0.24000
H803        H  0.12750797  0.96823211  0.29765056     0.08600
N804        N  0.41837250  0.93984401  0.28927367    -0.45200
H805        H  0.02717299  0.62758353  0.28759455     0.08600
C806        C  0.09320853  0.58763559  0.19880397     0.44300
C807        C  0.41347025  0.54865511  0.29099795    -0.04700
Co808      Co  0.00095451  0.57109264  0.24687373     0.73800
N809        N  0.09659936  0.56094228  0.28982899    -0.44900
C810        C  0.42333513  0.91767148  0.19746072     0.44500
N811        N  0.44610310  0.59194997  0.20681263    -0.44900
Co812      Co  0.08015876  0.00452759  0.25059038     0.73900
C813        C  0.11404856  0.95757001  0.21168633    -0.05300
C814        C  0.46803169  0.89716128  0.28658370    -0.04800
N815        N  0.43246059  0.53840675  0.22510228    -0.24300
N816        N  0.06090915  0.90227875  0.28603336    -0.45100
H817        H  0.47831982  0.87953116  0.20077349     0.08500
C818        C  0.05349518  0.59742617  0.20579996    -0.05200
Cl819      Cl  0.00911150  0.99952127  0.24849062    -0.48200
C820        C  0.08181505  0.59402664  0.29860189     0.44300
H821        H  0.37833241  0.52407815  0.20944354     0.08500
N822        N  0.10483553  0.55782504  0.21164254    -0.44900
C823        C  0.41831901  0.83145211  0.94435383     0.44200
N824        N  0.46545780  0.82396813  0.96704638     0.03000
C825        C  0.08289982  0.66302429  0.97473770    -0.04800
H826        H  0.42833161  0.63621449  0.98358469     0.08500
C827        C  0.43028655  0.71828060  0.05140161    -0.05200
Co828      Co  0.01272604  0.75539146  0.95579602     0.74200
N829        N  0.46621795  0.68390660  0.97507276    -0.24400
Co830      Co  0.00810471  0.69197880  0.00045195     0.74100
C831        C  0.41219081  0.68240713  0.04443196     0.44300
N832        N  0.46015371  0.80762620  0.03321048     0.02700
N833        N  0.46246756  0.69201678  0.02435283     0.02800
N834        N  0.08364163  0.70614771  0.94621387    -0.45200
H835        H  0.43316699  0.77629733  0.92500170     0.08500
N836        N  0.46679452  0.70851610  0.95814648     0.03100
N837        N  0.04738559  0.69863594  0.02655611     0.02800
C838        C  0.09346714  0.69126392  0.04979469     0.44400
N839        N  0.46141348  0.83250239  0.01643215    -0.23800
C840        C  0.08638869  0.80140131  0.94309821    -0.04700
N841        N  0.43626239  0.84759565  0.96209437    -0.44900
N842        N  0.07650162  0.67522272  0.03178464    -0.45100
C843        C  0.10447802  0.83716828  0.95021533     0.44200
N844        N  0.05490594  0.71322188  0.96023424     0.03000
N845        N  0.04607489  0.83844054  0.01848993    -0.23800
N846        N  0.46716974  0.79391826  0.95348769    -0.24300
N847        N  0.04395245  0.81390901  0.03541064     0.02700
H848        H  0.08497116  0.88617330  0.01142445     0.08600
H849        H  0.07760768  0.74630887  0.06907906     0.08600
N850        N  0.05355173  0.68854362  0.97709556    -0.24400
N851        N  0.46098758  0.72206091  0.03793575    -0.24000
N852        N  0.05247214  0.82887239  0.96902170     0.03000
C853        C  0.41779032  0.67220550  0.95175241     0.44400
C854        C  0.43092943  0.85665817  0.01806574    -0.05200
N855        N  0.04471016  0.72860590  0.04014578    -0.24000
H856        H  0.42212782  0.73788985  0.06464339     0.08600
N857        N  0.43831550  0.70235809  0.94367455    -0.45200
H858        H  0.42445386  0.88059152  0.00696612     0.08600
C859        C  0.09154622  0.85071504  0.04395731     0.44300
C860        C  0.43860099  0.79636223  0.93848403    -0.04700
Co861      Co  0.00662585  0.83416342  0.99178927     0.73800
N862        N  0.43013664  0.81331033  0.04653125    -0.44900
C863        C  0.10288277  0.67528231  0.95431694     0.44500
N864        N  0.08175651  0.85325635  0.96603217    -0.44900
Co865      Co  0.00218912  0.77058181  0.03646631     0.73900
C866        C  0.07270632  0.72622617  0.05553847    -0.05300
C867        C  0.43620333  0.65959246  0.97242391    -0.04800
N868        N  0.05457279  0.79848218  0.95571703    -0.24300
N869        N  0.43366600  0.66720994  0.02777984    -0.45100
H870        H  0.08852589  0.63831849  0.98542025     0.08500
C871        C  0.07568281  0.86299587  0.02235969    -0.05200
Cl872      Cl  0.00744770  0.76306669  0.99613433    -0.48200
C873        C  0.41020231  0.84333323  0.03786202     0.44300
H874        H  0.09502701  0.78156837  0.93006893     0.08500
N875        N  0.07054184  0.82024775  0.05093722    -0.44900
N876        N  0.31517759  0.87235983  0.86453198    -0.34900
N877        N  0.25850528  0.87113560  0.90073385    -0.55500
N878        N  0.19767672  0.88674664  0.86850639    -0.34900
N879        N  0.25425846  0.88516101  0.83201473    -0.55500
C880        C  0.33602523  0.85679309  0.88149842     0.28700
C881        C  0.33363333  0.86328199  0.84526881     0.28700
C882        C  0.17567019  0.87992906  0.88682638     0.28700
C883        C  0.17342484  0.89078217  0.85086075     0.28700
C884        C  0.29108099  0.86914686  0.91315765     0.37300
C885        C  0.22865523  0.87382898  0.91518631     0.37300
C886        C  0.28551424  0.89037420  0.81870278     0.37300
C887        C  0.22357884  0.90065689  0.82106915     0.37300
C888        C  0.36792005  0.83733983  0.87295300    -0.20200
C889        C  0.36615265  0.84105388  0.85007508    -0.20200
C890        C  0.13683334  0.88042202  0.88079968    -0.20200
C891        C  0.13536425  0.88781167  0.85828527    -0.20200
C892        C  0.28195528  0.87055185  0.93571120    -0.21300
C893        C  0.24228771  0.87317484  0.93699193    -0.21200
C894        C  0.27457950  0.90885917  0.79908847    -0.21300
C895        C  0.23539318  0.91513138  0.80051556    -0.21200
C896        C  0.32821774  0.86153907  0.90449980    -0.16600
C897        C  0.32345514  0.87742862  0.82376105    -0.16600
C898        C  0.18466933  0.89981442  0.82863308    -0.16600
C899        C  0.18921778  0.87480488  0.90900051    -0.16600
H900        H  0.39020271  0.82209990  0.88225005     0.16300
H901        H  0.38685852  0.82926197  0.83834771     0.16300
H902        H  0.11192283  0.87687722  0.89158708     0.16300
H903        H  0.10887581  0.89140370  0.84882978     0.16300
H904        H  0.30165856  0.86848590  0.94977115     0.14600
H905        H  0.22540675  0.87418853  0.95220926     0.14600
H906        H  0.29276080  0.91717136  0.78516951     0.14600
H907        H  0.21774913  0.92881307  0.78776795     0.14600
H908        H  0.29281252  0.89235431  0.86626257     0.27900
H909        H  0.22724077  0.89155670  0.86821518     0.27900
N910        N  0.25872482  0.62754107  0.90792850    -0.34900
N911        N  0.31841816  0.60435017  0.87594260    -0.55500
N912        N  0.25866372  0.59134864  0.84248518    -0.34900
N913        N  0.19842014  0.61076729  0.87516778    -0.55500
C914        C  0.29028737  0.62806628  0.92134757     0.28700
C915        C  0.22697567  0.62953831  0.92114447     0.28700
C916        C  0.28939582  0.57416663  0.83239061     0.28700
C917        C  0.22617313  0.58014360  0.83147543     0.28700
C918        C  0.34168601  0.61714898  0.89258371     0.37300
C919        C  0.34185665  0.59535053  0.85858414     0.37300
C920        C  0.17705411  0.62881328  0.89100256     0.37300
C921        C  0.17708559  0.61139502  0.85616637     0.37300
C922        C  0.27853258  0.63068618  0.94344496    -0.20200
C923        C  0.23857856  0.63139260  0.94333106    -0.20200
C924        C  0.27612739  0.55222775  0.81453043    -0.20200
C925        C  0.23641757  0.55583875  0.81403324    -0.20200
C926        C  0.38012345  0.61544312  0.88595714    -0.21300
C927        C  0.38030916  0.60112472  0.86466583    -0.21200
C928        C  0.14192924  0.64079502  0.88206941    -0.21300
C929        C  0.14219502  0.63034389  0.85995398    -0.21200
C930        C  0.32932998  0.62839206  0.91414666    -0.16600
C931        C  0.18822218  0.63340904  0.91360367    -0.16600
C932        C  0.18774569  0.59282051  0.83595167    -0.16600
C933        C  0.32917281  0.57942767  0.83797987    -0.16600
H934        H  0.29686003  0.63223582  0.95811806     0.16300
H935        H  0.22021830  0.63399106  0.95789708     0.16300
H936        H  0.29308766  0.53537221  0.80288281     0.16300
H937        H  0.21733261  0.54208332  0.80207919     0.16300
H938        H  0.40560705  0.62263787  0.89567672     0.14600
H939        H  0.40623140  0.59493828  0.85522031     0.14600
H940        H  0.11875001  0.65597480  0.89052320     0.14600
H941        H  0.11918598  0.63614159  0.84808804     0.14600
H942        H  0.25908714  0.63054062  0.89063150     0.27900
H943        H  0.25995550  0.61285808  0.85455039     0.27900
C944        C  0.43275818  0.91391514  0.68919519     0.44200
N945        N  0.44110287  0.95570154  0.71504209     0.03000
C946        C  0.10261190  0.57488455  0.72534156    -0.04800
H947        H  0.12826542  0.91592739  0.72562548     0.08500
C948        C  0.05743565  0.91350899  0.79756167    -0.05200
Co949      Co  0.01273668  0.00220842  0.70507156     0.74200
N950        N  0.08211567  0.95766628  0.72010016    -0.24400
Co951      Co  0.07916289  0.99429682  0.74800044     0.74100
C952        C  0.09581059  0.90028757  0.79040284     0.44300
N953        N  0.46132781  0.94432686  0.78159004     0.02700
N954        N  0.07681632  0.94699333  0.76924983     0.02800
N955        N  0.05755488  0.57924972  0.69791785    -0.45200
H956        H  0.48428368  0.93654489  0.66894725     0.08500
N957        N  0.05698871  0.96205949  0.70367379     0.03100
N958        N  0.07486123  0.53185650  0.77569841     0.02800
C959        C  0.09408897  0.56279069  0.80481717     0.44400
N960        N  0.43549241  0.94585626  0.76529840    -0.23800
C961        C  0.46123877  0.57803025  0.69548882    -0.04700
N962        N  0.41828408  0.92660448  0.70888675    -0.44900
N963        N  0.10436659  0.55174535  0.78402469    -0.45100
C964        C  0.42482371  0.59422453  0.70342781     0.44200
N965        N  0.05275884  0.54759562  0.71009464     0.03000
N966        N  0.43213711  0.53155706  0.77007797    -0.23800
N967        N  0.46912447  0.96223598  0.70051103    -0.24300
N968        N  0.45783900  0.53020609  0.78646719     0.02700
H969        H  0.37753012  0.56115245  0.76615175     0.08600
H970        H  0.03988445  0.54505469  0.82442941     0.08600
N971        N  0.07867981  0.54418420  0.72622212    -0.24400
N972        N  0.04823749  0.94268727  0.78367575    -0.24000
N973        N  0.43637670  0.54134199  0.72104511     0.03000
C974        C  0.09109390  0.91346085  0.69347998     0.44400
C975        C  0.40659738  0.92116089  0.77028137    -0.05200
N976        N  0.04575919  0.52873976  0.78993750    -0.24000
H977        H  0.04216214  0.90659231  0.81282850     0.08600
N978        N  0.06158490  0.93665498  0.68747792    -0.45200
H979        H  0.37859087  0.92102463  0.76210392     0.08600
C980        C  0.41509139  0.57165591  0.79724436     0.44300
C981        C  0.46581212  0.93760020  0.68351565    -0.04700
Co982      Co  0.43563336  0.99237458  0.74275457     0.73800
N983        N  0.45141431  0.91996685  0.79765373    -0.44900
C984        C  0.08823397  0.59817490  0.70663531     0.44500
N985        N  0.41060269  0.56977229  0.71907358    -0.44900
Co986      Co  0.00344129  0.98351809  0.78562226     0.73900
C987        C  0.05524750  0.54751719  0.80874884    -0.05300
C988        C  0.10517593  0.92721368  0.71521477    -0.04800
N989        N  0.46598888  0.54564160  0.70737595    -0.24300
N990        N  0.10565951  0.92256906  0.77278027    -0.45100
H991        H  0.12725589  0.57986371  0.73616291     0.08500
C992        C  0.40416041  0.55673479  0.77540895    -0.05200
Cl993      Cl  0.00800655  0.99229311  0.74530829    -0.48200
C994        C  0.41702107  0.90426187  0.79205541     0.44300
H995        H  0.48000235  0.58772478  0.68214862     0.08500
N996        N  0.44823531  0.55323875  0.80327690    -0.44900
N997        N  0.25577494  0.61463065  0.15729223    -0.34900
N998        N  0.31400366  0.62606664  0.12220995    -0.55500
N999        N  0.25400552  0.64953922  0.09180021    -0.34900
N1000       N  0.19526389  0.63615101  0.12664430    -0.55500
C1001       C  0.28626018  0.59353208  0.16500241     0.28700
C1002       C  0.22337059  0.60158580  0.16783229     0.28700
C1003       C  0.28392492  0.64672235  0.07731813     0.28700
C1004       C  0.22107724  0.65091044  0.07961810     0.28700
C1005       C  0.33792901  0.61797591  0.13949443     0.37300
C1006       C  0.33667649  0.63828164  0.10519039     0.37300
C1007       C  0.17535675  0.63858987  0.14602798     0.37300
C1008       C  0.17477716  0.65624292  0.11130054     0.37300
C1009       C  0.27298255  0.56694162  0.18067175    -0.20200
C1010       C  0.23349508  0.57187385  0.18235369    -0.20200
C1011       C  0.26989815  0.64683442  0.05559225    -0.20200
C1012       C  0.23010606  0.64927679  0.05703752    -0.20200
C1013       C  0.37612978  0.62474014  0.13323553    -0.21300
C1014       C  0.37524549  0.63801260  0.11165881    -0.21200
C1015       C  0.14270272  0.66154328  0.14314170    -0.21300
C1016       C  0.14186280  0.67201054  0.12097281    -0.21200
C1017       C  0.32595299  0.59932019  0.15939324    -0.16600
C1018       C  0.18525984  0.61698813  0.16530148    -0.16600
C1019       C  0.18375227  0.65752384  0.08837290    -0.16600
C1020       C  0.32348748  0.64610044  0.08330912    -0.16600
H1021       H  0.28981245  0.54607451  0.19010583     0.16300
H1022       H  0.21450939  0.55517806  0.19304437     0.16300
H1023       H  0.28659772  0.64557721  0.04031522     0.16300
H1024       H  0.21019280  0.65070021  0.04304960     0.16300
H1025       H  0.40238174  0.61922624  0.14258015     0.14600
H1026       H  0.40035326  0.64499574  0.10160211     0.14600
H1027       H  0.12162847  0.67000315  0.15556532     0.14600
H1028       H  0.11972529  0.68941750  0.11291015     0.14600
H1029       H  0.25760101  0.63916072  0.14717199     0.27900
H1030       H  0.25598896  0.65490925  0.10882318     0.27900
N1031       N  0.25535665  0.88011734  0.08752726    -0.34900
N1032       N  0.31863925  0.89016881  0.11958012    -0.55500
N1033       N  0.26249489  0.89392929  0.15559900    -0.34900
N1034       N  0.19867303  0.88688288  0.12320493    -0.55500
C1035       C  0.28553777  0.88387504  0.07332230     0.28700
C1036       C  0.22236201  0.88326572  0.07533714     0.28700
C1037       C  0.29444760  0.90899184  0.16573277     0.28700
C1038       C  0.23103449  0.90409131  0.16793742     0.28700
C1039       C  0.33976192  0.88200099  0.10116643     0.37300
C1040       C  0.34393613  0.89261973  0.13685854     0.37300
C1041       C  0.17597277  0.87334677  0.10650255     0.37300
C1042       C  0.17968925  0.87947860  0.14249376     0.37300
C1043       C  0.27161930  0.88938611  0.05177369    -0.20200
C1044       C  0.23171955  0.88920285  0.05306144    -0.20200
C1045       C  0.28298149  0.92829506  0.18494711    -0.20200
C1046       C  0.24328002  0.92545069  0.18624065    -0.20200
C1047       C  0.37871740  0.87941453  0.10675415    -0.21300
C1048       C  0.38143893  0.88671242  0.12918793    -0.21200
C1049       C  0.14247572  0.85718529  0.11518663    -0.21300
C1050       C  0.14521757  0.86031616  0.13800528    -0.21200
C1051       C  0.32511696  0.87986462  0.07908597    -0.16600
C1052       C  0.18447146  0.87678285  0.08350540    -0.16600
C1053       C  0.19180469  0.89318088  0.16366802    -0.16600
C1054       C  0.33378906  0.90464601  0.15870544    -0.16600
H1055       H  0.28847089  0.89265215  0.03664641     0.16300
H1056       H  0.21190025  0.89191717  0.03909210     0.16300
H1057       H  0.30110908  0.94308828  0.19695900     0.16300
H1058       H  0.22561234  0.93815161  0.19921863     0.16300
H1059       H  0.40296987  0.87438120  0.09567869     0.14600
H1060       H  0.40839036  0.88858916  0.13831683     0.14600
H1061       H  0.11886305  0.84392553  0.10605682     0.14600
H1062       H  0.12411951  0.84963293  0.14986356     0.14600
H1063       H  0.25728446  0.87100957  0.10402396     0.27900
H1064       H  0.26230809  0.87476812  0.14223265     0.27900
C1065       C  0.15783313  0.58588410  0.81822120    -0.14700
C1066       C  0.12224276  0.57191807  0.82265545    -0.29900
H1067       H  0.16626366  0.59012031  0.80089750     0.14300
H1068       H  0.11365583  0.56621474  0.83979625     0.14900
C1069       C  0.35876745  0.56475673  0.82184624    -0.14700
C1070       C  0.38712127  0.58718672  0.81344784    -0.29900
H1071       H  0.35635145  0.53502706  0.81610580     0.14300
H1072       H  0.38976477  0.61727278  0.81842897     0.14900
C1073       C  0.15425563  0.91092800  0.81228244    -0.14700
C1074       C  0.12531664  0.88703398  0.80634761    -0.29900
H1075       H  0.15653153  0.93928329  0.80444480     0.14300
H1076       H  0.12226820  0.85870663  0.81406670     0.14900
C1077       C  0.35344363  0.87999134  0.80571386    -0.14700
C1078       C  0.38925444  0.89355981  0.80976727    -0.29900
H1079       H  0.34477612  0.87477143  0.78853268     0.14300
H1080       H  0.39790738  0.89993806  0.82681979     0.14900
C1081       C  0.15291289  0.66679270  0.07307051    -0.11600
C1082       C  0.12614187  0.67613232  0.06144371    -0.13100
C1083       C  0.35239329  0.65438748  0.06637304    -0.11600
C1084       C  0.37909219  0.66475918  0.05481912    -0.13100
C1085       C  0.15299131  0.87129319  0.06756319    -0.11600
C1086       C  0.12558950  0.86417477  0.05559903    -0.13100
C1087       C  0.35269005  0.87198841  0.06139699    -0.11600
C1088       C  0.37808322  0.86119673  0.04905697    -0.13100
C1089       C  0.13535693  0.85619429  0.93854642    -0.11600
C1090       C  0.16060244  0.86718858  0.92616919    -0.13100
C1091       C  0.38597773  0.84693755  0.93237951    -0.11600
C1092       C  0.35944421  0.85487340  0.92014479    -0.13100
C1093       C  0.15860615  0.64455356  0.92972042    -0.11600
C1094       C  0.13351884  0.65628990  0.94212019    -0.13100
C1095       C  0.38521217  0.65486740  0.94056407    -0.11600
C1096       C  0.35887609  0.64166147  0.92966437    -0.13100
C1097       C  0.39640635  0.89988213  0.18104124    -0.14700
C1098       C  0.36485561  0.91985583  0.17391036    -0.29900
H1099       H  0.40168183  0.87048756  0.17544619     0.14300
H1100       H  0.36055187  0.94907467  0.18011963     0.14900
C1101       C  0.12554152  0.90879409  0.17967094    -0.14700
C1102       C  0.16303798  0.89828757  0.18232852    -0.29900
H1103       H  0.11258621  0.91202444  0.16326895     0.14300
H1104       H  0.17408753  0.89691733  0.19933127     0.14900
C1105       C  0.35576644  0.57986966  0.17356142    -0.14700
C1106       C  0.38562103  0.59853403  0.18332530    -0.29900
H1107       H  0.35222061  0.54902460  0.17637719     0.14300
H1108       H  0.38967532  0.62940168  0.18074662     0.14900
C1109       C  0.11725724  0.60383210  0.18054144    -0.14700
C1110       C  0.15603965  0.60803004  0.18333117    -0.29900
H1111       H  0.10331593  0.60887445  0.16457718     0.14300
H1112       H  0.16760525  0.60183924  0.19986844     0.14900
C1113       C  0.08987718  0.64994226  0.67861024    -0.14700
C1114       C  0.10623070  0.63281111  0.69647182    -0.29900
H1115       H  0.06311309  0.63836656  0.67172877     0.14300
H1116       H  0.13373704  0.64323093  0.70295166     0.14900
C1117       C  0.10309383  0.88082225  0.67934108    -0.14700
C1118       C  0.12521439  0.85078605  0.68586157    -0.29900
H1119       H  0.09126535  0.88080792  0.66248269     0.14300
H1120       H  0.13487176  0.84830685  0.70309039     0.14900
C1121       C  0.42318134  0.65249937  0.68048702    -0.14700
C1122       C  0.40394178  0.62722460  0.69341791    -0.29900
H1123       H  0.45453424  0.65086094  0.67907904     0.14300
H1124       H  0.37277018  0.62971932  0.69559256     0.14900
C1125       C  0.39596853  0.85351194  0.68231518    -0.14700
C1126       C  0.41767444  0.88298744  0.67491604    -0.29900
H1127       H  0.38869968  0.85123891  0.69992384     0.14300
H1128       H  0.42771677  0.88281793  0.65770344     0.14900
C1129       C  0.36795592  0.64927025  0.57044156    -0.11600
C1130       C  0.35749067  0.62403972  0.55790732    -0.13100
C1131       C  0.34758245  0.87634878  0.55954098    -0.11600
C1132       C  0.35585653  0.84862355  0.57081427    -0.13100
C1133       C  0.16074980  0.62721386  0.55686853    -0.11600
C1134       C  0.15140044  0.65302117  0.56931610    -0.13100
C1135       C  0.15712625  0.85304626  0.57320033    -0.11600
C1136       C  0.16289466  0.88021244  0.56103413    -0.13100
C1137       C  0.10087525  0.61941998  0.31519395    -0.14700
C1138       C  0.08565926  0.65449076  0.31985389    -0.29900
H1139       H  0.12713624  0.60961101  0.32351823     0.14300
H1140       H  0.06048988  0.66476263  0.31071292     0.14900
C1141       C  0.10593457  0.88694034  0.31709506    -0.14700
C1142       C  0.08942808  0.85199382  0.32054529    -0.29900
H1143       H  0.13089525  0.89601751  0.32683534     0.14300
H1144       H  0.06518518  0.84320878  0.31008883     0.14900
C1145       C  0.15023901  0.64899625  0.42990761    -0.11600
C1146       C  0.16052193  0.62113397  0.44057219    -0.13100
C1147       C  0.14789057  0.85000512  0.43185011    -0.11600
C1148       C  0.15833176  0.87649813  0.44345432    -0.13100
C1149       C  0.40313915  0.65067927  0.31345548    -0.14700
C1150       C  0.40871082  0.61215122  0.31641802    -0.29900
H1151       H  0.40691406  0.66178376  0.29660084     0.14300
H1152       H  0.40575868  0.59853899  0.33263883     0.14900
C1153       C  0.41144366  0.88027232  0.31346127    -0.14700
C1154       C  0.43037610  0.85097372  0.32364122    -0.29900
H1155       H  0.38047947  0.88422651  0.31583300     0.14300
H1156       H  0.46134022  0.84748994  0.32105141     0.14900
C1157       C  0.35844531  0.64641028  0.42600785    -0.11600
C1158       C  0.35046439  0.61978087  0.43815711    -0.13100
C1159       C  0.36115242  0.84584335  0.43190083    -0.11600
C1160       C  0.35090429  0.87214806  0.44388013    -0.13100
N1161       N  0.86990069  0.24785660  0.40726453    -0.34900
N1162       N  0.88958506  0.30666078  0.37509854    -0.55500
N1163       N  0.90027061  0.24660288  0.34123212    -0.34900
N1164       N  0.88287097  0.18712930  0.37356967    -0.55500
C1165       C  0.87368415  0.27862192  0.42102795     0.28700
C1166       C  0.87045902  0.21572223  0.42016293     0.28700
C1167       C  0.91908791  0.27711591  0.33186959     0.28700
C1168       C  0.91256431  0.21402227  0.33066024     0.28700
C1169       C  0.87877956  0.33004828  0.39208493     0.37300
C1170       C  0.89653090  0.32978979  0.35730585     0.37300
C1171       C  0.86454561  0.16703240  0.38977025     0.37300
C1172       C  0.88006982  0.16579128  0.35470535     0.37300
C1173       C  0.87634090  0.26590623  0.44297917    -0.20200
C1174       C  0.87442996  0.22611880  0.44243413    -0.20200
C1175       C  0.94332844  0.26362597  0.31509063    -0.20200
C1176       C  0.93940184  0.22406260  0.31443161    -0.20200
C1177       C  0.87875412  0.36827975  0.38508567    -0.21300
C1178       C  0.89042026  0.36821190  0.36320224    -0.21200
C1179       C  0.84983665  0.13279453  0.38120185    -0.21300
C1180       C  0.85906560  0.13234569  0.35887449    -0.21200
C1181       C  0.87281985  0.31780766  0.41434733    -0.16600
C1182       C  0.86369101  0.17779944  0.41246779    -0.16600
C1183       C  0.89867589  0.17575047  0.33443319    -0.16600
C1184       C  0.91345620  0.31696083  0.33707727    -0.16600
H1185       H  0.87906907  0.28347709  0.45784467     0.16300
H1186       H  0.87503014  0.20707450  0.45683187     0.16300
H1187       H  0.96193585  0.28037561  0.30422174     0.16300
H1188       H  0.95479125  0.20495817  0.30321291     0.16300
H1189       H  0.87273196  0.39376298  0.39498168     0.14600
H1190       H  0.89532999  0.39397852  0.35335124     0.14600
H1191       H  0.83386137  0.11061494  0.39008000     0.14600
H1192       H  0.85078073  0.11005326  0.34716417     0.14600
H1193       H  0.86269468  0.24873193  0.39040748     0.27900
H1194       H  0.87735597  0.24832450  0.35248324     0.27900
N1195       N  0.62172488  0.19437653  0.37502692    -0.34900
N1196       N  0.60440903  0.25543577  0.34271130    -0.55500
N1197       N  0.62171621  0.31441701  0.37556205    -0.34900
N1198       N  0.63386929  0.25315125  0.40896904    -0.55500
C1199       C  0.60466364  0.17319008  0.35878711     0.28700
C1200       C  0.62145057  0.17263562  0.39385938     0.23900
C1201       C  0.60637393  0.33695373  0.35920791     0.28700
C1202       C  0.62064620  0.33505218  0.39472434     0.28700
C1203       C  0.60273100  0.22410714  0.32914968     0.37300
C1204       C  0.60379882  0.28708327  0.32923097     0.37300
C1205       C  0.64667563  0.22171746  0.42030441     0.37300
C1206       C  0.64544716  0.28427870  0.42080659     0.37300
C1207       C  0.59362644  0.13751217  0.36743619    -0.20200
C1208       C  0.60460139  0.13703026  0.38950585    -0.20200
C1209       C  0.59585665  0.37251621  0.36808651    -0.20200
C1210       C  0.60510429  0.37140146  0.39045343    -0.20200
C1211       C  0.60106750  0.23596737  0.30701856    -0.21300
C1212       C  0.60182064  0.27566408  0.30706261    -0.21200
C1213       C  0.66627519  0.23284556  0.43946482    -0.21300
C1214       C  0.66546229  0.27256514  0.43980697    -0.21200
C1215       C  0.59948663  0.18502689  0.33632585    -0.16600
C1216       C  0.63807768  0.18322926  0.41447077    -0.16600
C1217       C  0.63566141  0.32288896  0.41558020    -0.16600
C1218       C  0.60179570  0.32615306  0.33653163    -0.16600
H1219       H  0.57890885  0.11419300  0.35890063     0.16300
H1220       H  0.60035202  0.11327220  0.40108434     0.16300
H1221       H  0.58248214  0.39671160  0.35950298     0.16300
H1222       H  0.60073110  0.39468361  0.40225620     0.16300
H1223       H  0.59914839  0.21789530  0.29231587     0.14600
H1224       H  0.60059425  0.29400920  0.29238269     0.14600
H1225       H  0.67914287  0.21428608  0.45207311     0.14600
H1226       H  0.67770082  0.29071409  0.45273269     0.14600
H1227       H  0.63624105  0.22047309  0.37285789     0.27900
H1228       H  0.63558544  0.28797458  0.37339318     0.27900
C1229       C  0.67555660  0.40546291  0.45687578     0.44200
N1230       N  0.68739872  0.45561916  0.47643874     0.03000
C1231       C  0.84670152  0.07092153  0.47262888    -0.04800
H1232       H  0.87892090  0.41724673  0.48600875     0.08500
C1233       C  0.79857625  0.43180971  0.55858775    -0.05200
Co1234     Co  0.75339448  0.99824513  0.45958456     0.74200
N1235       N  0.82854763  0.45299350  0.47927849    -0.24400
Co1236     Co  0.82258264  0.99968000  0.50167227     0.74100
C1237       C  0.83208545  0.40995683  0.55140436     0.44300
N1238       N  0.70990990  0.46297339  0.54210940     0.02700
N1239       N  0.82415850  0.45760669  0.52905017     0.02800
N1240       N  0.80056039  0.06844428  0.44562427    -0.45200
H1241       H  0.72910929  0.41474683  0.43488659     0.08500
N1242       N  0.80197412  0.45203981  0.46339052     0.03100
N1243       N  0.82128169  0.04382249  0.52569608     0.02800
C1244       C  0.83402109  0.09244117  0.54651375     0.44400
N1245       N  0.68367729  0.46153565  0.52604638    -0.23800
C1246       C  0.70720923  0.07027729  0.44372203    -0.04700
N1247       N  0.66170805  0.42744500  0.47368921    -0.44900
N1248       N  0.84735741  0.07152829  0.52907111    -0.45100
C1249       C  0.67319861  0.09100947  0.45134080     0.44200
N1250       N  0.79671982  0.03981464  0.46013117     0.03000
N1251       N  0.67996086  0.04640925  0.52258654    -0.23800
N1252       N  0.71630934  0.45349691  0.46205133    -0.24300
N1253       N  0.70674110  0.04725620  0.53838403     0.02700
H1254       H  0.63091448  0.08361008  0.51530107     0.08600
H1255       H  0.78027655  0.08236842  0.56823488     0.08600
N1256       N  0.82323994  0.04051610  0.47607519    -0.24400
N1257       N  0.79569500  0.46060280  0.54371003    -0.24000
N1258       N  0.68276311  0.04281214  0.47303415     0.03000
C1259       C  0.83843474  0.40351457  0.45636673     0.44400
C1260       C  0.65866805  0.43280747  0.53063758    -0.05200
N1261       N  0.79247763  0.04533625  0.54016247    -0.24000
H1262       H  0.77933736  0.42666938  0.57252990     0.08600
N1263       N  0.80700216  0.42310302  0.44926620    -0.45200
H1264       H  0.63420928  0.42426429  0.52044908     0.08600
C1265       C  0.67182284  0.09714031  0.54473673     0.44300
C1266       C  0.71115760  0.42276062  0.44893456    -0.04700
Co1267     Co  0.67958663  0.00205332  0.49880422     0.73800
N1268       N  0.70431398  0.43658780  0.55781550    -0.44900
C1269       C  0.83116116  0.08918635  0.45259074     0.44500
N1270       N  0.65914717  0.07258878  0.46949803    -0.44900
Co1271     Co  0.74878357  0.00429550  0.54081229     0.73900
C1272       C  0.79815356  0.07504586  0.55403043    -0.05300
C1273       C  0.85329241  0.42332464  0.47614482    -0.04800
N1274       N  0.71110290  0.04103123  0.45826191    -0.24300
N1275       N  0.84684407  0.42724010  0.53302405    -0.45100
H1276       H  0.87104883  0.07925664  0.48296140     0.08500
C1277       C  0.65616592  0.07690796  0.52535042    -0.05200
Cl1278     Cl  0.75107162  0.00104353  0.50021720    -0.48200
C1279       C  0.67252448  0.41672977  0.55173895     0.44300
H1280       H  0.72587954  0.07620560  0.42962745     0.08500
N1281       N  0.70272391  0.07695615  0.55208970    -0.44900
N1282       N  0.87630412  0.30547999  0.62862337    -0.34900
N1283       N  0.89299376  0.24746962  0.66230940    -0.55500
N1284       N  0.88867516  0.18859102  0.62712456    -0.34900
N1285       N  0.86849695  0.24666063  0.59420180    -0.55500
C1286       C  0.87273835  0.32651017  0.64755991     0.28700
C1287       C  0.85979087  0.32621844  0.61191177     0.28700
C1288       C  0.89160397  0.16614592  0.64561432     0.28700
C1289       C  0.87718799  0.16554704  0.61006546     0.28700
C1290       C  0.90192639  0.27955028  0.67415701     0.37300
C1291       C  0.90989395  0.21736037  0.67302312     0.37300
C1292       C  0.86613549  0.27842105  0.58107014     0.37300
C1293       C  0.87157683  0.21599163  0.58038031     0.37300
C1294       C  0.85335842  0.36080056  0.64286916    -0.20200
C1295       C  0.84530796  0.36070112  0.62036761    -0.20200
C1296       C  0.88225758  0.12822380  0.64016977    -0.20200
C1297       C  0.87290789  0.12791528  0.61782805    -0.20200
C1298       C  0.92382379  0.26970985  0.69277052    -0.21300
C1299       C  0.92887468  0.23024706  0.69206052    -0.21200
C1300       C  0.86710719  0.26789433  0.55874140    -0.21300
C1301       C  0.87042388  0.22824611  0.55830300    -0.21200
C1302       C  0.89024988  0.31748353  0.66836274    -0.16600
C1303       C  0.86031835  0.31635528  0.58900857    -0.16600
C1304       C  0.87271587  0.17702473  0.58745872    -0.16600
C1305       C  0.90672855  0.17822351  0.66647967    -0.16600
H1306       H  0.84659446  0.38395185  0.65437717     0.16300
H1307       H  0.83101383  0.38374647  0.61120884     0.16300
H1308       H  0.88274252  0.10306026  0.65096060     0.16300
H1309       H  0.86473809  0.10261044  0.60829488     0.16300
H1310       H  0.93524125  0.28891782  0.70542702     0.14600
H1311       H  0.94465266  0.21303008  0.70419714     0.14600
H1312       H  0.86498344  0.28672841  0.54429878     0.14600
H1313       H  0.87153112  0.21046546  0.54345524     0.14600
H1314       H  0.89392621  0.28133888  0.62658948     0.27900
H1315       H  0.89879665  0.21675611  0.62572683     0.27900
N1316       N  0.62019405  0.19310141  0.62581539    -0.34900
N1317       N  0.63935429  0.25273356  0.59374620    -0.55500
N1318       N  0.63484912  0.30916986  0.62940425    -0.34900
N1319       N  0.61984173  0.24933087  0.66241963    -0.55500
C1320       C  0.63172225  0.17085450  0.60842064     0.28700
C1321       C  0.61669688  0.16959288  0.64378383     0.28700
C1322       C  0.65025403  0.33063419  0.61269286     0.28700
C1323       C  0.64128124  0.32851634  0.64868645     0.28700
C1324       C  0.63659393  0.22266685  0.57950280     0.37300
C1325       C  0.64053647  0.28511615  0.58112045     0.37300
C1326       C  0.60299771  0.21909990  0.67299401     0.37300
C1327       C  0.61329940  0.28086446  0.67523306     0.37300
C1328       C  0.63537950  0.13269923  0.61550353    -0.20200
C1329       C  0.62558974  0.13187192  0.63774396    -0.20200
C1330       C  0.66697681  0.36380180  0.62146951    -0.20200
C1331       C  0.66152538  0.36233177  0.64419233    -0.20200
C1332       C  0.63655147  0.23593007  0.55761250    -0.21300
C1333       C  0.63875441  0.27564421  0.55864008    -0.21200
C1334       C  0.58652861  0.23125818  0.69288949    -0.21300
C1335       C  0.59312310  0.27044684  0.69432983    -0.21200
C1336       C  0.63675626  0.18345138  0.58606756    -0.16600
C1337       C  0.60293294  0.18061052  0.66506031    -0.16600
C1338       C  0.62526044  0.31884550  0.66975410    -0.16600
C1339       C  0.64711187  0.32249482  0.58964617    -0.16600
H1340       H  0.64350268  0.10782173  0.60559405     0.16300
H1341       H  0.62493018  0.10633493  0.64827517     0.16300
H1342       H  0.68115249  0.38695882  0.61240980     0.16300
H1343       H  0.67044855  0.38425191  0.65601692     0.16300
H1344       H  0.63540124  0.21877908  0.54251889     0.14600
H1345       H  0.64008819  0.29517946  0.54448326     0.14600
H1346       H  0.57107758  0.21382442  0.70500113     0.14600
H1347       H  0.58358840  0.28915184  0.70771711     0.14600
H1348       H  0.61074571  0.22159687  0.62505075     0.27900
H1349       H  0.61607936  0.28591894  0.62737410     0.27900
C1350       C  0.92630146  0.08537771  0.29937876     0.44200
N1351       N  0.96143304  0.06896895  0.27140878     0.03000
C1352       C  0.95946637  0.40748327  0.20428230    -0.04800
H1353       H  0.98628576  0.36907490  0.28505639     0.08500
C1354       C  0.60354786  0.45372122  0.28974659    -0.05200
Co1355     Co  0.93628948  0.49427821  0.25057335     0.74200
N1356       N  0.97190998  0.42430062  0.27061610    -0.24400
Co1357     Co  0.51379412  0.43188931  0.24464553     0.74100
C1358       C  0.59049440  0.41540237  0.29755447     0.44300
N1359       N  0.57320562  0.05042991  0.27456729     0.02700
N1360       N  0.55639587  0.43284090  0.26921942     0.02800
N1361       N  0.90822773  0.44644202  0.21146258    -0.45200
H1362       H  0.89233511  0.02781617  0.29820116     0.08500
N1363       N  0.94308062  0.44893011  0.27363582     0.03100
N1364       N  0.55701338  0.43906747  0.22055356     0.02800
C1365       C  0.59790616  0.43099997  0.19413379     0.44400
N1366       N  0.54469273  0.07531655  0.27115629    -0.23800
C1367       C  0.90474224  0.03959076  0.21145990    -0.04700
N1368       N  0.95502434  0.09724398  0.28581025    -0.44900
N1369       N  0.56506818  0.41651142  0.20322534    -0.45100
C1370       C  0.91352815  0.07432036  0.19887921     0.44200
N1371       N  0.93719619  0.45288951  0.22546898     0.03000
N1372       N  0.54925708  0.06982282  0.22263331    -0.23800
N1373       N  0.93859901  0.03869849  0.27454830    -0.24300
N1374       N  0.57940097  0.04689184  0.22624044     0.02700
H1375       H  0.53928012  0.11557422  0.19842806     0.08600
H1376       H  0.63543989  0.48187931  0.20580414     0.08600
N1377       N  0.96759190  0.43040766  0.22191283    -0.24400
N1378       N  0.58030110  0.46225424  0.27217470    -0.24000
N1379       N  0.95879021  0.06453449  0.22297510     0.03000
C1380       C  0.93267495  0.40273737  0.29702515     0.44400
C1381       C  0.54727981  0.10410874  0.28579398    -0.05200
N1382       N  0.58311512  0.46658043  0.22341699    -0.24000
H1383       H  0.62727471  0.47132750  0.29575629     0.08600
N1384       N  0.91814555  0.43654819  0.28898923    -0.45200
H1385       H  0.52809488  0.12885782  0.28622975     0.08600
C1386       C  0.59678640  0.08118981  0.19821368     0.44300
C1387       C  0.91547783  0.04619316  0.29219577    -0.04700
Co1388     Co  0.50372955  0.07051501  0.24606290     0.73800
N1389       N  0.59668867  0.06178130  0.29098332    -0.44900
C1390       C  0.91970235  0.41799842  0.19769769     0.44500
N1391       N  0.94711277  0.08908831  0.20713740    -0.44900
Co1392     Co  0.57938494  0.50772095  0.24859847     0.73900
C1393       C  0.61014217  0.46363495  0.20755552    -0.05300
C1394       C  0.96815193  0.39465379  0.28481347    -0.04800
N1395       N  0.93381506  0.03608516  0.22595412    -0.24300
N1396       N  0.56142340  0.40475187  0.28393633    -0.45100
H1397       H  0.97782205  0.38462045  0.19793848     0.08500
C1398       C  0.55740692  0.09250280  0.20486776    -0.05200
Cl1399     Cl  0.50823633  0.50214878  0.24724830    -0.48200
C1400       C  0.58166054  0.09544694  0.29892962     0.44300
H1401       H  0.87918888  0.02147528  0.21111881     0.08500
N1402       N  0.60817583  0.05275885  0.21210869    -0.44900
C1403       C  0.91410461  0.32731409  0.94571518     0.44200
N1404       N  0.96247934  0.32123949  0.96783130     0.03000
C1405       C  0.58359626  0.16334610  0.97262214    -0.04800
H1406       H  0.93083961  0.13234909  0.98310860     0.08500
C1407       C  0.93290698  0.21477805  0.05205739    -0.05200
Co1408     Co  0.50825560  0.25319489  0.95603415     0.74200
N1409       N  0.96748290  0.18133753  0.97511264    -0.24400
Co1410     Co  0.50923703  0.18794848  0.00000862     0.74100
C1411       C  0.91494802  0.17897130  0.04483008     0.44300
N1412       N  0.96094260  0.30449332  0.03431706     0.02700
N1413       N  0.96475424  0.18944799  0.02458453     0.02800
N1414       N  0.58024152  0.20689036  0.94432469    -0.45200
H1415       H  0.93038252  0.27299918  0.92595398     0.08500
N1416       N  0.96757546  0.20607844  0.95825836     0.03100
N1417       N  0.54994514  0.19420887  0.02553574     0.02800
C1418       C  0.59679042  0.18644160  0.04834084     0.44400
N1419       N  0.96038748  0.32951727  0.01759636    -0.23800
C1420       C  0.57840423  0.30126681  0.94034631    -0.04700
N1421       N  0.93239780  0.34399944  0.96320615    -0.44900
N1422       N  0.57946289  0.17091077  0.03025172    -0.45100
C1423       C  0.59702141  0.33697820  0.94693134     0.44200
N1424       N  0.55189159  0.21199736  0.95887082     0.03000
N1425       N  0.54668060  0.33333219  0.01883943    -0.23800
N1426       N  0.96472251  0.29134372  0.95416153    -0.24300
N1427       N  0.54541950  0.30835623  0.03559034     0.02700
H1428       H  0.58568379  0.38073636  0.01128269     0.08600
H1429       H  0.58031821  0.24013189  0.06866679     0.08600
N1430       N  0.55298411  0.18703976  0.97563207    -0.24400
N1431       N  0.96335472  0.21912245  0.03844599    -0.24000
N1432       N  0.54898784  0.32663937  0.96873223     0.03000
C1433       C  0.92015436  0.16822061  0.95116476     0.44400
C1434       C  0.92982639  0.35333594  0.02035017    -0.05200
N1435       N  0.54721943  0.22344232  0.03961013    -0.24000
H1436       H  0.92465194  0.23412124  0.06541009     0.08600
N1437       N  0.93977765  0.19918126  0.94351348    -0.45200
H1438       H  0.92217408  0.37750988  0.00967900     0.08600
C1439       C  0.59424092  0.34398734  0.04317393     0.44300
C1440       C  0.93545251  0.29294976  0.93953863    -0.04700
Co1441     Co  0.50529564  0.33039772  0.99310119     0.73800
N1442       N  0.93233587  0.30971883  0.04864991    -0.44900
C1443       C  0.60159516  0.17706296  0.95193298     0.44500
N1444       N  0.57735496  0.35166898  0.96452345    -0.44900
Co1445     Co  0.50404311  0.26481648  0.03707660     0.73900
C1446       C  0.57559743  0.22076778  0.05475957    -0.05300
C1447       C  0.93830320  0.15605415  0.97208313    -0.04800
N1448       N  0.54918027  0.29707033  0.95477690    -0.24300
N1449       N  0.93618382  0.16439812  0.02792278    -0.45100
H1450       H  0.59149063  0.13910209  0.98318146     0.08500
C1451       C  0.57691932  0.35730938  0.02218316    -0.05200
Cl1452     Cl  0.50674554  0.25911227  0.99654526    -0.48200
C1453       C  0.91134666  0.33963366  0.04085974     0.44300
H1454       H  0.58521393  0.28201685  0.92668180     0.08500
N1455       N  0.57327410  0.31376053  0.05046259    -0.44900
N1456       N  0.81416016  0.36788972  0.86376714    -0.34900
N1457       N  0.75578447  0.36504720  0.89913713    -0.55500
N1458       N  0.69514018  0.37268057  0.86544415    -0.34900
N1459       N  0.75397856  0.37675258  0.83012693    -0.55500
C1460       C  0.83593865  0.35541200  0.88124720     0.28700
C1461       C  0.83485906  0.36110698  0.84491688     0.28700
C1462       C  0.67350749  0.37525320  0.88430333     0.28700
C1463       C  0.67249231  0.38466057  0.84819163     0.28700
C1464       C  0.78771883  0.36201370  0.91212529     0.37300
C1465       C  0.72499061  0.36389735  0.91305321     0.37300
C1466       C  0.78520372  0.37988510  0.81655676     0.37300
C1467       C  0.72257306  0.38600237  0.81762584     0.37300
C1468       C  0.87071400  0.34049703  0.87341039    -0.20200
C1469       C  0.86982780  0.34365993  0.85054346    -0.20200
C1470       C  0.63656845  0.38803135  0.87892354    -0.20200
C1471       C  0.63607630  0.39455348  0.85635023    -0.20200
C1472       C  0.77715684  0.35941984  0.93443674    -0.21300
C1473       C  0.73740914  0.36029684  0.93500061    -0.21200
C1474       C  0.77352022  0.39098416  0.79530759    -0.21300
C1475       C  0.73401375  0.39436370  0.79590167    -0.21200
C1476       C  0.82594914  0.35773339  0.90414584    -0.16600
C1477       C  0.82401439  0.37198946  0.82285012    -0.16600
C1478       C  0.68383084  0.38872733  0.82544074    -0.16600
C1479       C  0.68585200  0.36735940  0.90642598    -0.16600
H1480       H  0.89419887  0.32816307  0.88314461     0.16300
H1481       H  0.89251190  0.33417870  0.83934212     0.16300
H1482       H  0.61279350  0.39371526  0.89023834     0.16300
H1483       H  0.61172455  0.40666003  0.84731043     0.16300
H1484       H  0.79604746  0.35608001  0.94878406     0.14600
H1485       H  0.71970383  0.35875480  0.94988990     0.14600
H1486       H  0.79131387  0.39626543  0.78075745     0.14600
H1487       H  0.71601323  0.40263423  0.78184575     0.14600
H1488       H  0.78873452  0.38398694  0.86488154     0.27900
H1489       H  0.72287744  0.36122471  0.86428084     0.27900
N1490       N  0.75939065  0.13269886  0.90592305    -0.34900
N1491       N  0.81868988  0.10651221  0.87468269    -0.55500
N1492       N  0.75897438  0.09340135  0.84103888    -0.34900
N1493       N  0.69912193  0.11623860  0.87286617    -0.55500
C1494       C  0.79070775  0.13295926  0.91958168     0.28700
C1495       C  0.72745204  0.13605678  0.91890323     0.28700
C1496       C  0.78925799  0.07420215  0.83172495     0.28700
C1497       C  0.72634289  0.08252318  0.83003012     0.28700
C1498       C  0.84212968  0.11961754  0.89116681     0.37300
C1499       C  0.84198649  0.09618659  0.85751655     0.37300
C1500       C  0.67778096  0.13471516  0.88852349     0.37300
C1501       C  0.67775838  0.11625645  0.85387206     0.37300
C1502       C  0.77858767  0.13718306  0.94152699    -0.20200
C1503       C  0.73868774  0.13892664  0.94111646    -0.20200
C1504       C  0.77559326  0.05129034  0.81438491    -0.20200
C1505       C  0.73607565  0.05645337  0.81336618    -0.20200
C1506       C  0.88053464  0.11720183  0.88453699    -0.21300
C1507       C  0.88050808  0.10191847  0.86345550    -0.21200
C1508       C  0.64264322  0.14644118  0.87947424    -0.21300
C1509       C  0.64290260  0.13537962  0.85745740    -0.21200
C1510       C  0.82991868  0.13110048  0.91272222    -0.16600
C1511       C  0.68882127  0.13970376  0.91110839    -0.16600
C1512       C  0.68822614  0.09660504  0.83397252    -0.16600
C1513       C  0.82908950  0.07860584  0.83741876    -0.16600
H1514       H  0.79662097  0.13892115  0.95631526     0.16300
H1515       H  0.72013302  0.14264924  0.95552000     0.16300
H1516       H  0.79221595  0.03285647  0.80338664     0.16300
H1517       H  0.71675655  0.04245092  0.80163544     0.16300
H1518       H  0.90612098  0.12444650  0.89415403     0.14600
H1519       H  0.90631267  0.09495999  0.85407906     0.14600
H1520       H  0.61942846  0.16178796  0.88779710     0.14600
H1521       H  0.61983907  0.14072144  0.84555615     0.14600
H1522       H  0.76005767  0.13438232  0.88864962     0.27900
H1523       H  0.76083570  0.11578553  0.85252367     0.27900
C1524       C  0.93528954  0.41150121  0.69056846     0.44200
N1525       N  0.94147967  0.45597443  0.71517828     0.03000
C1526       C  0.60083000  0.07567992  0.72527466    -0.04800
H1527       H  0.62380260  0.41645695  0.72539035     0.08500
C1528       C  0.55377279  0.41651741  0.79788377    -0.05200
Co1529     Co  0.50967989  0.50505322  0.70527560     0.74200
N1530       N  0.57826642  0.45894865  0.72013074    -0.24400
Co1531     Co  0.57724470  0.49619814  0.74785805     0.74100
C1532       C  0.59126899  0.40152564  0.79043235     0.44300
N1533       N  0.96035420  0.44492876  0.78148389     0.02700
N1534       N  0.57427778  0.44935115  0.76953072     0.02800
N1535       N  0.55480866  0.07970352  0.69839028    -0.45200
H1536       H  0.98667527  0.43399420  0.67019395     0.08500
N1537       N  0.55285564  0.46370132  0.70385659     0.03100
N1538       N  0.57563556  0.03172582  0.77495472     0.02800
C1539       C  0.59451570  0.06483609  0.80333056     0.44400
N1540       N  0.93457916  0.44694742  0.76519300    -0.23800
C1541       C  0.96289986  0.07363822  0.69492906    -0.04700
N1542       N  0.91981980  0.42554837  0.70970858    -0.44900
N1543       N  0.60480599  0.05274977  0.78273611    -0.45100
C1544       C  0.92595838  0.08898148  0.70248950     0.44200
N1545       N  0.55167293  0.04729918  0.70998473     0.03000
N1546       N  0.93277357  0.02575663  0.76951722    -0.23800
N1547       N  0.96973518  0.46217123  0.70074137    -0.24300
N1548       N  0.95803751  0.02438307  0.78615129     0.02700
H1549       H  0.87786259  0.05478081  0.76526183     0.08600
H1550       H  0.54063729  0.04744696  0.82340935     0.08600
N1551       N  0.57816565  0.04398463  0.72579100    -0.24400
N1552       N  0.54587801  0.44631887  0.78416082    -0.24000
N1553       N  0.93823958  0.03657027  0.72038360     0.03000
C1554       C  0.58567767  0.41428520  0.69361716     0.44400
C1555       C  0.90565541  0.42214005  0.76993721    -0.05200
N1556       N  0.54672901  0.02880891  0.78931572    -0.24000
H1557       H  0.53809865  0.40979463  0.81304347     0.08600
N1558       N  0.55654587  0.43802536  0.68772039    -0.45200
H1559       H  0.87770444  0.42205942  0.76169013     0.08600
C1560       C  0.91441560  0.06485692  0.79681826     0.44300
C1561       C  0.96761208  0.43594638  0.68446785    -0.04700
Co1562     Co  0.93555994  0.49337895  0.74256840     0.73800
N1563       N  0.95035888  0.42021914  0.79733579    -0.44900
C1564       C  0.58492200  0.09933453  0.70712692     0.44500
N1565       N  0.91179830  0.06432329  0.71806218    -0.44900
Co1566     Co  0.50232991  0.48839794  0.78596424     0.73900
C1567       C  0.55600227  0.04894969  0.80769348    -0.05300
C1568       C  0.60051806  0.42794040  0.71519735    -0.04800
N1569       N  0.96808898  0.04152967  0.70696312    -0.24300
N1570       N  0.60198226  0.42350049  0.77281176    -0.45100
H1571       H  0.62522939  0.08134057  0.73616594     0.08500
C1572       C  0.90417071  0.05028575  0.77480759    -0.05200
Cl1573     Cl  0.50593161  0.49596774  0.74559632    -0.48200
C1574       C  0.91602288  0.40463073  0.79155549     0.44300
H1575       H  0.98177528  0.08367636  0.68172431     0.08500
N1576       N  0.94764161  0.04684903  0.80306500    -0.44900
N1577       N  0.75819957  0.10307635  0.15519330    -0.34900
N1578       N  0.81668813  0.11618690  0.12086951    -0.55500
N1579       N  0.75670559  0.14187116  0.09068910    -0.34900
N1580       N  0.69757742  0.12620521  0.12477073    -0.55500
C1581       C  0.78878588  0.08280105  0.16342446     0.28700
C1582       C  0.72586093  0.09033071  0.16583590     0.28700
C1583       C  0.78680752  0.13961192  0.07631504     0.28700
C1584       C  0.72393745  0.14382011  0.07834562     0.28700
C1585       C  0.84061116  0.10695646  0.13797013     0.37300
C1586       C  0.83950994  0.12866658  0.10399975     0.37300
C1587       C  0.67785885  0.12803741  0.14422911     0.37300
C1588       C  0.67726847  0.14736555  0.10981082     0.37300
C1589       C  0.77562441  0.05683306  0.17947600    -0.20200
C1590       C  0.73606157  0.06140495  0.18088092    -0.20200
C1591       C  0.77308636  0.14057518  0.05453175    -0.20200
C1592       C  0.73328372  0.14300917  0.05580590    -0.20200
C1593       C  0.87891742  0.11272908  0.13165664    -0.21300
C1594       C  0.87816181  0.12688423  0.11027971    -0.21200
C1595       C  0.64542036  0.15146891  0.14173650    -0.21300
C1596       C  0.64455690  0.16297145  0.11975153    -0.21200
C1597       C  0.82843136  0.08921064  0.15807086    -0.16600
C1598       C  0.68796676  0.10613208  0.16336430    -0.16600
C1599       C  0.68647535  0.15016627  0.08697259    -0.16600
C1600       C  0.82629315  0.13868101  0.08243466    -0.16600
H1601       H  0.79258148  0.03675877  0.18939988     0.16300
H1602       H  0.71711822  0.04528994  0.19189396     0.16300
H1603       H  0.79001088  0.13982914  0.03932638     0.16300
H1604       H  0.71356977  0.14495887  0.04174625     0.16300
H1605       H  0.90504607  0.10622130  0.14093004     0.14600
H1606       H  0.90335238  0.13370650  0.10025681     0.14600
H1607       H  0.62461692  0.15981771  0.15433296     0.14600
H1608       H  0.62268520  0.18115170  0.11202552     0.14600
H1609       H  0.75993069  0.12742988  0.14496379     0.27900
H1610       H  0.75857372  0.14655274  0.10779115     0.27900
N1611       N  0.75553785  0.37324214  0.08964455    -0.34900
N1612       N  0.81670327  0.38248050  0.12328213    -0.55500
N1613       N  0.75734364  0.38609932  0.15749374    -0.34900
N1614       N  0.69650244  0.38106593  0.12334151    -0.55500
C1615       C  0.78691142  0.37849342  0.07651110     0.28700
C1616       C  0.72368750  0.37749064  0.07661218     0.28700
C1617       C  0.78919854  0.39969546  0.16831561     0.28700
C1618       C  0.72566751  0.40010087  0.16822536     0.28700
C1619       C  0.83725403  0.36876072  0.10580155     0.37300
C1620       C  0.83855850  0.37634389  0.14178117     0.37300
C1621       C  0.67470144  0.36763605  0.10627083     0.37300
C1622       C  0.67539455  0.37614946  0.14209756     0.37300
C1623       C  0.77491629  0.38630709  0.05480897    -0.20200
C1624       C  0.73492912  0.38566551  0.05487686    -0.20200
C1625       C  0.77749914  0.42272716  0.18603158    -0.20200
C1626       C  0.73760019  0.42302118  0.18595900    -0.20200
C1627       C  0.87227152  0.35363797  0.11320369    -0.21300
C1628       C  0.87276460  0.35776210  0.13604813    -0.21200
C1629       C  0.63957925  0.35385049  0.11420220    -0.21300
C1630       C  0.64025172  0.35873745  0.13698194    -0.21200
C1631       C  0.82561960  0.37173059  0.08320119    -0.16600
C1632       C  0.68524877  0.37036326  0.08356708    -0.16600
C1633       C  0.68641423  0.39102304  0.16314268    -0.16600
C1634       C  0.82837910  0.39012248  0.16324944    -0.16600
H1635       H  0.79308754  0.39074638  0.04030189     0.16300
H1636       H  0.71631409  0.38962512  0.04046212     0.16300
H1637       H  0.79568729  0.43822170  0.19772310     0.16300
H1638       H  0.71956072  0.43870352  0.19762462     0.16300
H1639       H  0.89485456  0.34049761  0.10322349     0.14600
H1640       H  0.89555187  0.34764823  0.14705859     0.14600
H1641       H  0.61597089  0.34162425  0.10459606     0.14600
H1642       H  0.61729366  0.35069765  0.14838057     0.14600
H1643       H  0.75606525  0.36214874  0.10580679     0.27900
H1644       H  0.75719097  0.36527596  0.14493492     0.27900
C1645       C  0.65828943  0.08914759  0.81629220    -0.14700
C1646       C  0.62264828  0.07544145  0.82093419    -0.29900
H1647       H  0.66687999  0.09226977  0.79891655     0.14300
H1648       H  0.61408041  0.07067801  0.83816790     0.14900
C1649       C  0.85843302  0.06138731  0.82198848    -0.14700
C1650       C  0.88685303  0.08241759  0.81256194    -0.29900
H1651       H  0.85555117  0.03104452  0.81751021     0.14300
H1652       H  0.88967599  0.11305691  0.81622480     0.14900
C1653       C  0.65432146  0.40194207  0.80887679    -0.14700
C1654       C  0.61991614  0.38445544  0.80580962    -0.29900
H1655       H  0.66132896  0.42737618  0.79893796     0.14300
H1656       H  0.61167649  0.35966914  0.81594386     0.14900
C1657       C  0.85460302  0.37567080  0.80519005    -0.14700
C1658       C  0.88791837  0.39450297  0.80912764    -0.29900
H1659       H  0.84836939  0.36614155  0.78828837     0.14300
H1660       H  0.89427702  0.40477995  0.82587349     0.14900
C1661       C  0.65584085  0.16062970  0.07168697    -0.11600
C1662       C  0.62927624  0.17065372  0.06001917    -0.13100
C1663       C  0.85517298  0.14911940  0.06594708    -0.11600
C1664       C  0.88184820  0.16090769  0.05488044    -0.13100
C1665       C  0.65525690  0.36481198  0.06680984    -0.11600
C1666       C  0.62830753  0.35758916  0.05459459    -0.13100
C1667       C  0.85449070  0.36514607  0.06605409    -0.11600
C1668       C  0.87972412  0.35615200  0.05313919    -0.13100
C1669       C  0.62948022  0.35421117  0.93560129    -0.11600
C1670       C  0.65597559  0.36269823  0.92335558    -0.13100
C1671       C  0.88238481  0.34320489  0.93317515    -0.11600
C1672       C  0.85646184  0.35137525  0.92046633    -0.13100
C1673       C  0.65887737  0.15026646  0.92708756    -0.11600
C1674       C  0.63326110  0.16062705  0.93948522    -0.13100
C1675       C  0.88672136  0.15223723  0.94013815    -0.11600
C1676       C  0.85985408  0.14152096  0.92875139    -0.13100
C1677       C  0.89606024  0.40484466  0.17850659    -0.14700
C1678       C  0.85816757  0.39609670  0.18142339    -0.29900
H1679       H  0.90905708  0.40630690  0.16208395     0.14300
H1680       H  0.84760634  0.39591389  0.19852301     0.14900
C1681       C  0.62085038  0.41336064  0.17621130    -0.14700
C1682       C  0.65658544  0.39950866  0.18062067    -0.29900
H1683       H  0.61046922  0.41699423  0.15922791     0.14300
H1684       H  0.66571326  0.39821853  0.19800640     0.14900
C1685       C  0.85823282  0.07230162  0.17321223    -0.14700
C1686       C  0.88693352  0.09304374  0.18279661    -0.29900
H1687       H  0.85549991  0.04169096  0.17700310     0.14300
H1688       H  0.89038152  0.12364056  0.17907309     0.14900
C1689       C  0.62058276  0.09463170  0.17926563    -0.14700
C1690       C  0.65934767  0.09852542  0.18176654    -0.29900
H1691       H  0.60643074  0.09843761  0.16324190     0.14300
H1692       H  0.67124987  0.09360756  0.19837085     0.14900
C1693       C  0.58468315  0.14973503  0.67857983    -0.14700
C1694       C  0.60103941  0.13485565  0.69709334    -0.29900
H1695       H  0.55945613  0.13578579  0.67125470     0.14300
H1696       H  0.62735152  0.14740532  0.70394258     0.14900
C1697       C  0.59762175  0.38197537  0.67923932    -0.14700
C1698       C  0.61786893  0.35081735  0.68598323    -0.29900
H1699       H  0.58694263  0.38296789  0.66213736     0.14300
H1700       H  0.62596902  0.34741131  0.70342566     0.14900
C1701       C  0.92534327  0.14852800  0.68074000    -0.14700
C1702       C  0.90535845  0.12221886  0.69259409    -0.29900
H1703       H  0.95683192  0.14764736  0.68046730     0.14300
H1704       H  0.87398776  0.12403826  0.69386042     0.14900
C1705       C  0.89942743  0.34988731  0.68396161    -0.14700
C1706       C  0.92102540  0.37956191  0.67661125    -0.29900
H1707       H  0.89176806  0.34766954  0.70151560     0.14300
H1708       H  0.93123530  0.37918969  0.65943530     0.14900
C1709       C  0.86553251  0.14722196  0.57089114    -0.11600
C1710       C  0.85457607  0.12216299  0.55836865    -0.13100
C1711       C  0.84567997  0.37491190  0.56161945    -0.11600
C1712       C  0.85320915  0.34705439  0.57298904    -0.13100
C1713       C  0.65518629  0.12887244  0.55686624    -0.11600
C1714       C  0.64497473  0.15441915  0.56924666    -0.13100
C1715       C  0.65333766  0.35404722  0.57411894    -0.11600
C1716       C  0.66022963  0.38207373  0.56280380    -0.13100
C1717       C  0.59978578  0.12153739  0.31559178    -0.14700
C1718       C  0.58421139  0.15672942  0.31975419    -0.29900
H1719       H  0.62568466  0.11207101  0.32440967     0.14300
H1720       H  0.55936050  0.16655966  0.31017487     0.14900
C1721       C  0.60549371  0.39013445  0.31577617    -0.14700
C1722       C  0.58847385  0.35549855  0.31973303    -0.29900
H1723       H  0.63043075  0.39931509  0.32550438     0.14300
H1724       H  0.56422059  0.34677445  0.30927545     0.14900
C1725       C  0.64722786  0.15255506  0.43014585    -0.11600
C1726       C  0.65721299  0.12506209  0.44116778    -0.13100
C1727       C  0.64318312  0.35208678  0.43226274    -0.11600
C1728       C  0.65449402  0.37654769  0.44493930    -0.13100
C1729       C  0.90510880  0.14670232  0.31603107    -0.14700
C1730       C  0.91231555  0.10844653  0.31860216    -0.29900
H1731       H  0.90702645  0.15822859  0.29914714     0.14300
H1732       H  0.91143682  0.09457933  0.33484851     0.14900
C1733       C  0.91241566  0.37561991  0.31218621    -0.14700
C1734       C  0.93174924  0.34612632  0.32198227    -0.29900
H1735       H  0.88170795  0.37986631  0.31536236     0.14300
H1736       H  0.96245706  0.34249412  0.31862162     0.14900
C1737       C  0.85475979  0.14821850  0.42868417    -0.11600
C1738       C  0.84563500  0.12202227  0.44079766    -0.13100
C1739       C  0.86537593  0.34706156  0.43121461    -0.11600
C1740       C  0.85555521  0.37237813  0.44388775    -0.13100
N1741       N  0.86594927  0.74796382  0.40694964    -0.34900
N1742       N  0.88598018  0.80754024  0.37520541    -0.55500
N1743       N  0.90003789  0.74819347  0.34147286    -0.34900
N1744       N  0.88200006  0.68807575  0.37336340    -0.55500
C1745       C  0.86804922  0.77887375  0.42072916     0.28700
C1746       C  0.86755790  0.71578081  0.41984322     0.28700
C1747       C  0.91959810  0.77891762  0.33288096     0.28700
C1748       C  0.91337740  0.71575404  0.33117987     0.28700
C1749       C  0.87289160  0.83048023  0.39185493     0.37300
C1750       C  0.89372709  0.83095852  0.35764265     0.37300
C1751       C  0.86302876  0.66775158  0.38922436     0.37300
C1752       C  0.87879771  0.66767040  0.35419251     0.37300
C1753       C  0.87064420  0.76621370  0.44269137    -0.20200
C1754       C  0.87055188  0.72632163  0.44212879    -0.20200
C1755       C  0.94559114  0.76568699  0.31690648    -0.20200
C1756       C  0.94179449  0.72605428  0.31591914    -0.20200
C1757       C  0.87213199  0.86871481  0.38484561    -0.21300
C1758       C  0.88580772  0.86913692  0.36335648    -0.21200
C1759       C  0.84730271  0.63443285  0.38013246    -0.21300
C1760       C  0.85644680  0.63488379  0.35778101    -0.21200
C1761       C  0.86586661  0.81803984  0.41398758    -0.16600
C1762       C  0.86247493  0.67758576  0.41205126    -0.16600
C1763       C  0.89886288  0.67750128  0.33436965    -0.16600
C1764       C  0.91283284  0.81867650  0.33795143    -0.16600
H1765       H  0.87222108  0.78388081  0.45757104     0.16300
H1766       H  0.87155901  0.70728410  0.45652034     0.16300
H1767       H  0.96517772  0.78265239  0.30674043     0.16300
H1768       H  0.95825424  0.70710092  0.30512572     0.16300
H1769       H  0.86444336  0.89396770  0.39455416     0.14600
H1770       H  0.89079801  0.89512397  0.35372113     0.14600
H1771       H  0.83053202  0.61243989  0.38866576     0.14600
H1772       H  0.84723823  0.61358784  0.34568850     0.14600
H1773       H  0.85923785  0.74869945  0.39001225     0.27900
H1774       H  0.87602375  0.74963986  0.35195519     0.27900
N1775       N  0.62908830  0.69125752  0.37381042    -0.34900
N1776       N  0.61307421  0.75317075  0.34223147    -0.55500
N1777       N  0.62560732  0.81076871  0.37644764    -0.34900
N1778       N  0.63806831  0.74877484  0.40897598    -0.55500
C1779       C  0.61202426  0.67092799  0.35717538     0.28700
C1780       C  0.62764954  0.66903363  0.39242644     0.23900
C1781       C  0.60921879  0.83299226  0.36029483     0.28700
C1782       C  0.62169474  0.83001899  0.39596546     0.28700
C1783       C  0.61285177  0.72259105  0.32814819     0.37300
C1784       C  0.61256445  0.78539736  0.32930167     0.37300
C1785       C  0.65100690  0.71711769  0.42002483     0.37300
C1786       C  0.64768889  0.77959272  0.42165957     0.37300
C1787       C  0.59967925  0.63538827  0.36540950    -0.20200
C1788       C  0.61004026  0.63400431  0.38757557    -0.20200
C1789       C  0.59491776  0.86678772  0.36968729    -0.20200
C1790       C  0.60307246  0.86503974  0.39215932    -0.20200
C1791       C  0.61274566  0.73547554  0.30618347    -0.21300
C1792       C  0.61266382  0.77517751  0.30690769    -0.21200
C1793       C  0.66871705  0.72779137  0.43988753    -0.21300
C1794       C  0.66655514  0.76748500  0.44094282    -0.21200
C1795       C  0.60799673  0.68349405  0.33474720    -0.16600
C1796       C  0.64369650  0.67876155  0.41333101    -0.16600
C1797       C  0.63692365  0.81807928  0.41678364    -0.16600
C1798       C  0.60716927  0.82357029  0.33732226    -0.16600
H1799       H  0.58452756  0.61272683  0.35654863     0.16300
H1800       H  0.60474060  0.61012174  0.39891931     0.16300
H1801       H  0.57987254  0.89024835  0.36134610     0.16300
H1802       H  0.59596841  0.88702024  0.40434336     0.16300
H1803       H  0.61178493  0.71807295  0.29118163     0.14600
H1804       H  0.61157856  0.79430797  0.29255753     0.14600
H1805       H  0.68104977  0.70891706  0.45251826     0.14600
H1806       H  0.67701607  0.78531740  0.45451534     0.14600
H1807       H  0.64424784  0.71713468  0.37214353     0.27900
H1808       H  0.64197873  0.78581679  0.37398847     0.27900
C1809       C  0.67038619  0.90792783  0.45491719     0.44200
N1810       N  0.68155620  0.95773579  0.47495318     0.03000
C1811       C  0.85274658  0.56832060  0.47234203    -0.04800
H1812       H  0.87102189  0.91801038  0.48467392     0.08500
C1813       C  0.79426289  0.93157259  0.55652445    -0.05200
Co1814     Co  0.75970372  0.49467892  0.46068488     0.74200
N1815       N  0.82216356  0.95561877  0.47760160    -0.24400
Co1816     Co  0.82841997  0.49771824  0.50279480     0.74100
C1817       C  0.82774815  0.91028129  0.54863484     0.44300
N1818       N  0.70523268  0.96307658  0.54079800     0.02700
N1819       N  0.81893047  0.95891050  0.52725723     0.02800
N1820       N  0.80676161  0.56393802  0.44537810    -0.45200
H1821       H  0.72343998  0.91882438  0.43276803     0.08500
N1822       N  0.79560992  0.95533603  0.46167505     0.03100
N1823       N  0.82664305  0.54253452  0.52615425     0.02800
C1824       C  0.83866886  0.59258850  0.54574040     0.44400
N1825       N  0.67887693  0.96152858  0.52479603    -0.23800
C1826       C  0.71294227  0.56499999  0.44294929    -0.04700
N1827       N  0.65675490  0.92868885  0.47231521    -0.44900
N1828       N  0.85220158  0.57089294  0.52873678    -0.45100
C1829       C  0.67843588  0.58573254  0.44983556     0.44200
N1830       N  0.80299642  0.53622613  0.46048682     0.03000
N1831       N  0.68585827  0.54594696  0.52278129    -0.23800
N1832       N  0.70996310  0.95692571  0.46018379    -0.24300
N1833       N  0.71235561  0.54684821  0.53872966     0.02700
H1834       H  0.63613448  0.58229070  0.51564993     0.08600
H1835       H  0.78509002  0.58349366  0.56776143     0.08600
N1836       N  0.82943027  0.53790723  0.47646236    -0.24400
N1837       N  0.79077873  0.96109707  0.54214102    -0.24000
N1838       N  0.68904962  0.54013782  0.47316092     0.03000
C1839       C  0.83055631  0.90555579  0.45485689     0.44400
C1840       C  0.65517777  0.93146027  0.52894353    -0.05200
N1841       N  0.79793137  0.54449572  0.54067097    -0.24000
H1842       H  0.77565395  0.92577643  0.57066360     0.08600
N1843       N  0.79975754  0.92606671  0.44765206    -0.45200
H1844       H  0.63109149  0.92231612  0.51863868     0.08600
C1845       C  0.67681048  0.59614664  0.54515564     0.44300
C1846       C  0.70512257  0.92654944  0.44671130    -0.04700
Co1847     Co  0.68540090  0.50083721  0.49955914     0.73800
N1848       N  0.70100379  0.93559959  0.55599087    -0.44900
C1849       C  0.83739977  0.58519775  0.45172604     0.44500
N1850       N  0.66488465  0.56905149  0.46865568    -0.44900
Co1851     Co  0.75400599  0.50379151  0.54173663     0.73900
C1852       C  0.80325845  0.57514428  0.55387167    -0.05300
C1853       C  0.84593626  0.92512443  0.47458101    -0.04800
N1854       N  0.71738511  0.53733979  0.45844576    -0.24300
N1855       N  0.84204056  0.92871239  0.53057448    -0.45100
H1856       H  0.87678179  0.57767476  0.48262296     0.08500
C1857       C  0.66167721  0.57611045  0.52556477    -0.05200
Cl1858     Cl  0.75690632  0.49922932  0.50120545    -0.48200
C1859       C  0.67009306  0.91472488  0.54967578     0.44300
H1860       H  0.73147163  0.56979127  0.42864990     0.08500
N1861       N  0.70777354  0.57621488  0.55257719    -0.44900
N1862       N  0.87780671  0.80783408  0.62590180    -0.34900
N1863       N  0.88883743  0.74857508  0.66012526    -0.55500
N1864       N  0.88757906  0.69091286  0.62457921    -0.34900
N1865       N  0.87260996  0.74984141  0.59116565    -0.55500
C1866       C  0.87321003  0.82860654  0.64483155     0.28700
C1867       C  0.86289841  0.82919845  0.60893715     0.28700
C1868       C  0.88844234  0.66804903  0.64295528     0.28700
C1869       C  0.87701056  0.66841942  0.60712660     0.28700
C1870       C  0.89718869  0.78027690  0.67240714     0.37300
C1871       C  0.90378399  0.71804887  0.67141733     0.37300
C1872       C  0.87033888  0.78159115  0.57805793     0.37300
C1873       C  0.87528420  0.71916679  0.57736891     0.37300
C1874       C  0.85526536  0.86353522  0.63988356    -0.20200
C1875       C  0.84871545  0.86393218  0.61724926    -0.20200
C1876       C  0.87856570  0.63051140  0.63715893    -0.20200
C1877       C  0.87099946  0.63078309  0.61460229    -0.20200
C1878       C  0.91614463  0.76971324  0.69194491    -0.21300
C1879       C  0.92034569  0.73020962  0.69130848    -0.21200
C1880       C  0.87135811  0.77110467  0.55571816    -0.21300
C1881       C  0.87444366  0.73143839  0.55527964    -0.21200
C1882       C  0.88827171  0.81862995  0.66607452    -0.16600
C1883       C  0.86367652  0.81931363  0.58603651    -0.16600
C1884       C  0.87495237  0.68023742  0.58447847    -0.16600
C1885       C  0.90220797  0.67927397  0.66418244    -0.16600
H1886       H  0.84818071  0.88661000  0.65137930     0.16300
H1887       H  0.83543682  0.88741232  0.60795488     0.16300
H1888       H  0.87751009  0.60537071  0.64797601     0.16300
H1889       H  0.86292416  0.60580916  0.60475964     0.16300
H1890       H  0.92653698  0.78850695  0.70508893     0.14600
H1891       H  0.93433319  0.71251913  0.70393550     0.14600
H1892       H  0.86909999  0.78994168  0.54128050     0.14600
H1893       H  0.87512402  0.71363506  0.54043114     0.14600
H1894       H  0.89473250  0.78310527  0.62431691     0.27900
H1895       H  0.89868912  0.71876040  0.62360910     0.27900
N1896       N  0.62385912  0.69203465  0.62656768    -0.34900
N1897       N  0.64291276  0.75063919  0.59355082    -0.55500
N1898       N  0.63677023  0.80869898  0.62817707    -0.34900
N1899       N  0.62254739  0.74974033  0.66219463    -0.55500
C1900       C  0.63513441  0.66908463  0.60944197     0.28700
C1901       C  0.61958137  0.66912208  0.64474283     0.28700
C1902       C  0.65161273  0.82981069  0.61113303     0.28700
C1903       C  0.64263886  0.82907973  0.64716121     0.28700
C1904       C  0.64123345  0.71980777  0.57981771     0.37300
C1905       C  0.64444863  0.78230876  0.58033568     0.37300
C1906       C  0.60598771  0.71983160  0.67327630     0.37300
C1907       C  0.61594990  0.78180863  0.67456241     0.37300
C1908       C  0.63793463  0.63107176  0.61690692    -0.20200
C1909       C  0.62780921  0.63106755  0.63910623    -0.20200
C1910       C  0.66727503  0.86387304  0.61937774    -0.20200
C1911       C  0.66188238  0.86326776  0.64211604    -0.20200
C1912       C  0.64252472  0.73188544  0.55770121    -0.21300
C1913       C  0.64429066  0.77160781  0.55802977    -0.21200
C1914       C  0.58980256  0.73274025  0.69307721    -0.21300
C1915       C  0.59617903  0.77202203  0.69391947    -0.21200
C1916       C  0.64069241  0.68091591  0.58699014    -0.16600
C1917       C  0.60559048  0.68100718  0.66581669    -0.16600
C1918       C  0.62727158  0.81976960  0.66847218    -0.16600
C1919       C  0.64925541  0.82033843  0.58822725    -0.16600
H1920       H  0.64566092  0.60575872  0.60726142     0.16300
H1921       H  0.62643086  0.60584299  0.64986056     0.16300
H1922       H  0.68090014  0.88694066  0.60996425     0.16300
H1923       H  0.67031564  0.88592536  0.65358897     0.16300
H1924       H  0.64234414  0.71395867  0.54289694     0.14600
H1925       H  0.64617614  0.79036583  0.54354906     0.14600
H1926       H  0.57462519  0.71572947  0.70550040     0.14600
H1927       H  0.58664986  0.79121913  0.70707410     0.14600
H1928       H  0.61502491  0.72067095  0.62543748     0.27900
H1929       H  0.61878823  0.78475490  0.62653245     0.27900
C1930       C  0.92425934  0.58566835  0.29966520     0.44200
N1931       N  0.95932944  0.56879070  0.27183155     0.03000
C1932       C  0.95953811  0.90426552  0.20597213    -0.04800
H1933       H  0.98648593  0.86975369  0.28670419     0.08500
C1934       C  0.60277996  0.95283299  0.29308816    -0.05200
Co1935     Co  0.93849200  0.99427539  0.25046619     0.74200
N1936       N  0.97255325  0.92428973  0.27134015    -0.24400
Co1937     Co  0.51455068  0.92942595  0.24722357     0.74100
C1938       C  0.58980614  0.91462019  0.30095436     0.44300
N1939       N  0.57372486  0.55152132  0.27262316     0.02700
N1940       N  0.55579389  0.93158102  0.27254309     0.02800
N1941       N  0.91122787  0.94756184  0.21109067    -0.45200
H1942       H  0.88997330  0.52820390  0.29856849     0.08500
N1943       N  0.94409330  0.94940756  0.27396617     0.03100
N1944       N  0.55958283  0.93513314  0.22380933     0.02800
C1945       C  0.60380600  0.92394571  0.19945479     0.44400
N1946       N  0.54500193  0.57658061  0.27032506    -0.23800
C1947       C  0.90200512  0.54087745  0.21166438    -0.04700
N1948       N  0.95294488  0.59722863  0.28608046    -0.44900
N1949       N  0.56918187  0.91130021  0.20728307    -0.45100
C1950       C  0.91078662  0.57637306  0.19967424     0.44200
N1951       N  0.93977278  0.95292779  0.22546599     0.03000
N1952       N  0.54676674  0.57369674  0.22161598    -0.23800
N1953       N  0.93649494  0.53852968  0.27496790    -0.24300
N1954       N  0.57707662  0.55062611  0.22429889     0.02700
H1955       H  0.53637294  0.62181088  0.19902255     0.08600
H1956       H  0.64015061  0.97586427  0.21090008     0.08600
N1957       N  0.96894649  0.92856258  0.22278088    -0.24400
N1958       N  0.57964717  0.96106219  0.27546337    -0.24000
N1959       N  0.95590675  0.56546208  0.22363024     0.03000
C1960       C  0.93344168  0.90463175  0.29823944     0.44400
C1961       C  0.54923885  0.60496788  0.28514675    -0.05200
N1962       N  0.58581166  0.96248539  0.22697380    -0.24000
H1963       H  0.62701617  0.97011006  0.29872784     0.08600
N1964       N  0.91914789  0.93814434  0.28960806    -0.45200
H1965       H  0.53028935  0.62979967  0.28653092     0.08600
C1966       C  0.59381003  0.58743760  0.19715627     0.44300
C1967       C  0.91334291  0.54632710  0.29259925    -0.04700
Co1968     Co  0.50237817  0.57272370  0.24589572     0.73800
N1969       N  0.59882244  0.56221739  0.28834666    -0.44900
C1970       C  0.92126493  0.91756532  0.19810541     0.44500
N1971       N  0.94426344  0.59068348  0.20819307    -0.44900
Co1972     Co  0.58035760  0.00528970  0.25129619     0.73900
C1973       C  0.61471273  0.95773325  0.21235700    -0.05300
C1974       C  0.96863749  0.89551085  0.28606821    -0.04800
N1975       N  0.93102817  0.53676614  0.22622699    -0.24300
N1976       N  0.56076193  0.90369126  0.28738205    -0.45100
H1977       H  0.97620015  0.87931462  0.20079498     0.08500
C1978       C  0.55449163  0.59797423  0.20445637    -0.05200
Cl1979     Cl  0.50934256  0.99995794  0.24860378    -0.48200
C1980       C  0.58490015  0.59570431  0.29704000     0.44300
H1981       H  0.87647888  0.52275327  0.21091799     0.08500
N1982       N  0.60551626  0.55787590  0.21014582    -0.44900
C1983       C  0.92127335  0.83403404  0.94156030     0.44200
N1984       N  0.96727601  0.82743333  0.96527003     0.03000
C1985       C  0.58227899  0.66131813  0.97464836    -0.04800
H1986       H  0.92877340  0.64204812  0.98258895     0.08500
C1987       C  0.92996241  0.72328646  0.05037546    -0.05200
Co1988     Co  0.50923676  0.75170899  0.95633461     0.74200
N1989       N  0.96856942  0.68824961  0.97422781    -0.24400
Co1990     Co  0.50700876  0.68753143  0.00073607     0.74100
C1991       C  0.91234147  0.68701623  0.04367457     0.44300
N1992       N  0.95962991  0.81235873  0.03177065     0.02700
N1993       N  0.96265253  0.69687372  0.02355876     0.02800
N1994       N  0.58101662  0.70451933  0.94613773    -0.45200
H1995       H  0.93816261  0.77883649  0.92280198     0.08500
N1996       N  0.97047713  0.71249779  0.95716482     0.03100
N1997       N  0.54744858  0.69370727  0.02638190     0.02800
C1998       C  0.59487045  0.68643563  0.04879443     0.44400
N1999       N  0.96091702  0.83698720  0.01486594    -0.23800
C2000       C  0.58257903  0.79806082  0.94245314    -0.04700
N2001       N  0.93764472  0.85023293  0.95981678    -0.44900
N2002       N  0.57715277  0.67056832  0.03094663    -0.45100
C2003       C  0.60157176  0.83329591  0.94979313     0.44200
N2004       N  0.55164813  0.70977185  0.95995605     0.03000
N2005       N  0.54666438  0.83308135  0.01901769    -0.23800
N2006       N  0.97052239  0.79747429  0.95173560    -0.24300
N2007       N  0.54486961  0.80846495  0.03591130     0.02700
H2008       H  0.58593204  0.88029157  0.01148788     0.08600
H2009       H  0.57938825  0.74090903  0.06866577     0.08600
N2010       N  0.55146529  0.68504891  0.97681521    -0.24400
N2011       N  0.96069263  0.72715318  0.03693208    -0.24000
N2012       N  0.55060215  0.82461423  0.96944852     0.03000
C2013       C  0.92112699  0.67738741  0.95021967     0.44400
C2014       C  0.93054967  0.86138274  0.01658663    -0.05200
N2015       N  0.54513099  0.72331504  0.04024246    -0.24000
H2016       H  0.92184595  0.74280258  0.06367425     0.08600
N2017       N  0.94256641  0.70690043  0.94233193    -0.45200
H2018       H  0.92434977  0.88553966  0.00559667     0.08600
C2019       C  0.59371534  0.84419198  0.04367505     0.44300
C2020       C  0.94279989  0.79939189  0.93613477    -0.04700
Co2021     Co  0.50605547  0.82973063  0.99289233     0.73800
N2022       N  0.92985750  0.81838212  0.04520120    -0.44900
C2023       C  0.60180202  0.67484207  0.95438557     0.44500
N2024       N  0.58000787  0.84878548  0.96630664    -0.44900
Co2025     Co  0.50266542  0.76543746  0.03728388     0.73900
C2026       C  0.57391403  0.72094104  0.05514328    -0.05300
C2027       C  0.93808430  0.66466332  0.97127853    -0.04800
N2028       N  0.55146484  0.79481157  0.95566896    -0.24300
N2029       N  0.93425483  0.67169734  0.02722437    -0.45100
H2030       H  0.58968195  0.63750267  0.98563978     0.08500
C2031       C  0.57690428  0.85704754  0.02244784    -0.05200
Cl2032     Cl  0.50623247  0.75860489  0.99681437    -0.48200
C2033       C  0.90995720  0.84843406  0.03660576     0.44300
H2034       H  0.59037878  0.77864990  0.92904502     0.08500
N2035       N  0.57239396  0.81415998  0.05099420    -0.44900
N2036       N  0.81241415  0.87352816  0.86451274    -0.34900
N2037       N  0.75622639  0.87003068  0.90081767    -0.55500
N2038       N  0.69500210  0.88814816  0.86916407    -0.34900
N2039       N  0.75127374  0.88878652  0.83257857    -0.55500
C2040       C  0.83320895  0.85640104  0.88100876     0.28700
C2041       C  0.83036393  0.86526640  0.84496676     0.28700
C2042       C  0.67327205  0.87882132  0.88723493     0.28700
C2043       C  0.67068472  0.89158052  0.85148094     0.28700
C2044       C  0.78896155  0.86707548  0.91309915     0.37300
C2045       C  0.72649330  0.87202429  0.91540957     0.37300
C2046       C  0.78229554  0.89438511  0.81913786     0.37300
C2047       C  0.72035670  0.90425233  0.82186576     0.37300
C2048       C  0.86443973  0.83673523  0.87187608    -0.20200
C2049       C  0.86232681  0.84186797  0.84911461    -0.20200
C2050       C  0.63453183  0.87722103  0.88102557    -0.20200
C2051       C  0.63283262  0.88571364  0.85863595    -0.20200
C2052       C  0.78006048  0.86713725  0.93568484    -0.21300
C2053       C  0.74037570  0.86995343  0.93714377    -0.21200
C2054       C  0.77098504  0.91322527  0.79970234    -0.21300
C2055       C  0.73176799  0.91924236  0.80135948    -0.21200
C2056       C  0.82601883  0.85987826  0.90414231    -0.16600
C2057       C  0.82019768  0.88088257  0.82379530    -0.16600
C2058       C  0.68155243  0.90236080  0.82946029    -0.16600
C2059       C  0.68694470  0.87294002  0.90933776    -0.16600
H2060       H  0.88644707  0.82032425  0.88071253     0.16300
H2061       H  0.88242962  0.83012242  0.83703275     0.16300
H2062       H  0.60979376  0.87126994  0.89159203     0.16300
H2063       H  0.60633925  0.88783586  0.84903600     0.16300
H2064       H  0.79991083  0.86400726  0.94961213     0.14600
H2065       H  0.72362936  0.86997550  0.95242285     0.14600
H2066       H  0.78889326  0.92170655  0.78570042     0.14600
H2067       H  0.71377462  0.93288179  0.78875370     0.14600
H2068       H  0.79044314  0.89382234  0.86679399     0.27900
H2069       H  0.72419396  0.89514563  0.86916586     0.27900
N2070       N  0.75972772  0.63654631  0.90734646    -0.34900
N2071       N  0.81871861  0.61310000  0.87533985    -0.55500
N2072       N  0.75840672  0.59471422  0.84323491    -0.34900
N2073       N  0.69884012  0.61498787  0.87566297    -0.55500
C2074       C  0.79168811  0.63850190  0.92039525     0.28700
C2075       C  0.72850879  0.63710871  0.92099133     0.28700
C2076       C  0.78913955  0.57588376  0.83410248     0.28700
C2077       C  0.72582302  0.58144480  0.83309087     0.28700
C2078       C  0.84190122  0.62953603  0.89087965     0.37300
C2079       C  0.84165790  0.60382713  0.85783504     0.37300
C2080       C  0.67764026  0.63319532  0.89149022     0.37300
C2081       C  0.67685179  0.61430361  0.85688820     0.37300
C2082       C  0.78072108  0.64089955  0.94263934    -0.20200
C2083       C  0.74081112  0.63983190  0.94302740    -0.20200
C2084       C  0.77571582  0.55051962  0.81788550    -0.20200
C2085       C  0.73594988  0.55405036  0.81724807    -0.20200
C2086       C  0.87980704  0.63061876  0.88327174    -0.21300
C2087       C  0.87979766  0.61382994  0.86258072    -0.21200
C2088       C  0.64194642  0.64399237  0.88280731    -0.21300
C2089       C  0.64172346  0.63271810  0.86080422    -0.21200
C2090       C  0.83030324  0.63999733  0.91266687    -0.16600
C2091       C  0.68942933  0.63876644  0.91389771    -0.16600
C2092       C  0.68741199  0.59484265  0.83690991    -0.16600
C2093       C  0.82901425  0.58310554  0.83873982    -0.16600
H2094       H  0.79950491  0.64335776  0.95708117     0.16300
H2095       H  0.72290198  0.64170257  0.95781898     0.16300
H2096       H  0.79269629  0.53176093  0.80725887     0.16300
H2097       H  0.71670368  0.53822602  0.80627671     0.16300
H2098       H  0.90521738  0.64089754  0.89208149     0.14600
H2099       H  0.90551207  0.60870124  0.85275919     0.14600
H2100       H  0.61873225  0.65899712  0.89133703     0.14600
H2101       H  0.61822638  0.63762766  0.84913628     0.14600
H2102       H  0.75922845  0.63914471  0.89007223     0.27900
H2103       H  0.75968749  0.61846824  0.85383758     0.27900
C2104       C  0.93748665  0.90907196  0.68933138     0.44200
N2105       N  0.94381092  0.95207483  0.71470245     0.03000
C2106       C  0.60106174  0.57522608  0.72565912    -0.04800
H2107       H  0.62543103  0.91691496  0.72410230     0.08500
C2108       C  0.55634142  0.91634083  0.79736984    -0.05200
Co2109     Co  0.51034736  0.00492387  0.70483309     0.74200
N2110       N  0.57941424  0.95899574  0.71920020    -0.24400
Co2111     Co  0.57815970  0.99583048  0.74705878     0.74100
C2112       C  0.59423565  0.90212494  0.79011989     0.44300
N2113       N  0.96141686  0.94098113  0.78129432     0.02700
N2114       N  0.57587263  0.94880849  0.76867528     0.02800
N2115       N  0.55555276  0.57951455  0.69849434    -0.45200
H2116       H  0.98933763  0.93204994  0.66949099     0.08500
N2117       N  0.55392404  0.96390362  0.70298585     0.03100
N2118       N  0.57513530  0.53239315  0.77586959     0.02800
C2119       C  0.59405582  0.56454410  0.80472837     0.44400
N2120       N  0.93599623  0.94268669  0.76478866    -0.23800
C2121       C  0.96218148  0.57732293  0.69479983    -0.04700
N2122       N  0.92186658  0.92229298  0.70860134    -0.44900
N2123       N  0.60464933  0.55249917  0.78412617    -0.45100
C2124       C  0.92530857  0.59310968  0.70230613     0.44200
N2125       N  0.55155930  0.54739339  0.71033779     0.03000
N2126       N  0.93233447  0.53040256  0.76983556    -0.23800
N2127       N  0.97234515  0.95865595  0.70050222    -0.24300
N2128       N  0.95738278  0.52839229  0.78656053     0.02700
H2129       H  0.87766647  0.55985883  0.76558827     0.08600
H2130       H  0.53922201  0.54805135  0.82413434     0.08600
N2131       N  0.57776031  0.54402837  0.72633001    -0.24400
N2132       N  0.54758686  0.94540289  0.78334700    -0.24000
N2133       N  0.93753597  0.54099603  0.72064265     0.03000
C2134       C  0.58733184  0.91514500  0.69230105     0.44400
C2135       C  0.90607467  0.91934025  0.76989563    -0.05200
N2136       N  0.54583405  0.52994742  0.78998568    -0.24000
H2137       H  0.54114739  0.91008045  0.81275780     0.08600
N2138       N  0.55788091  0.93867873  0.68662664    -0.45200
H2139       H  0.87817112  0.92022704  0.76161518     0.08600
C2140       C  0.91366700  0.56873586  0.79742300     0.44300
C2141       C  0.97031018  0.93322979  0.68381539    -0.04700
Co2142     Co  0.93684894  0.98899174  0.74219814     0.73800
N2143       N  0.95012895  0.91781376  0.79764561    -0.44900
C2144       C  0.58594137  0.59879198  0.70726738     0.44500
N2145       N  0.91133676  0.56895336  0.71821046    -0.44900
Co2146     Co  0.50355651  0.98673382  0.78548066     0.73900
C2147       C  0.55502519  0.54958364  0.80856269    -0.05300
C2148       C  0.60201077  0.92838184  0.71400560    -0.04800
N2149       N  0.96724794  0.54539901  0.70705131    -0.24300
N2150       N  0.60431793  0.92390021  0.77228612    -0.45100
H2151       H  0.62548824  0.58058052  0.73658229     0.08500
C2152       C  0.90388296  0.55509111  0.77517152    -0.05200
Cl2153     Cl  0.50688558  0.99497635  0.74510355    -0.48200
C2154       C  0.91523000  0.90325797  0.79202407     0.44300
H2155       H  0.98090375  0.58665537  0.68135470     0.08500
N2156       N  0.94670353  0.55029931  0.80369466    -0.44900
N2157       N  0.75646153  0.61147127  0.15613044    -0.34900
N2158       N  0.81582875  0.62371655  0.12195495    -0.55500
N2159       N  0.75674725  0.64780322  0.09117987    -0.34900
N2160       N  0.69694995  0.63376290  0.12517889    -0.55500
C2161       C  0.78661409  0.59046572  0.16428350     0.28700
C2162       C  0.72379053  0.59908342  0.16660322     0.28700
C2163       C  0.78718505  0.64471757  0.07709377     0.28700
C2164       C  0.72420341  0.64786897  0.07860907     0.28700
C2165       C  0.83909276  0.61541488  0.13949830     0.37300
C2166       C  0.83898710  0.63727819  0.10550151     0.37300
C2167       C  0.67674936  0.63667297  0.14442269     0.37300
C2168       C  0.67713232  0.65413249  0.10967771     0.37300
C2169       C  0.77286091  0.56448225  0.18015733    -0.20200
C2170       C  0.73337735  0.56977949  0.18153040    -0.20200
C2171       C  0.77390079  0.64309921  0.05524207    -0.20200
C2172       C  0.73400347  0.64483438  0.05619985    -0.20200
C2173       C  0.87742276  0.62323071  0.13394827    -0.21300
C2174       C  0.87724046  0.63756448  0.11255785    -0.21200
C2175       C  0.64455106  0.66018328  0.14128987    -0.21300
C2176       C  0.64432044  0.67055122  0.11909033    -0.21200
C2177       C  0.82642713  0.59632044  0.15911754    -0.16600
C2178       C  0.68603809  0.61513135  0.16381057    -0.16600
C2179       C  0.68657028  0.65477986  0.08682505    -0.16600
C2180       C  0.82650268  0.64561466  0.08355208    -0.16600
H2181       H  0.78941675  0.54397680  0.19001378     0.16300
H2182       H  0.71407166  0.55373428  0.19236217     0.16300
H2183       H  0.79116684  0.64121027  0.04019998     0.16300
H2184       H  0.71452205  0.64502471  0.04199361     0.16300
H2185       H  0.90328752  0.61795315  0.14370025     0.14600
H2186       H  0.90259925  0.64558411  0.10297646     0.14600
H2187       H  0.62336839  0.66903076  0.15356199     0.14600
H2188       H  0.62263789  0.68825008  0.11083062     0.14600
H2189       H  0.75869586  0.63584841  0.14593057     0.27900
H2190       H  0.75818677  0.65442580  0.10809632     0.27900
N2191       N  0.75598669  0.87986182  0.08756061    -0.34900
N2192       N  0.81843359  0.89126798  0.11962166    -0.55500
N2193       N  0.76168266  0.89462901  0.15539893    -0.34900
N2194       N  0.69872027  0.88527915  0.12307939    -0.55500
C2195       C  0.78599863  0.88614107  0.07349323     0.28700
C2196       C  0.72289359  0.88278617  0.07544749     0.28700
C2197       C  0.79328258  0.91061027  0.16537403     0.28700
C2198       C  0.72999936  0.90534389  0.16736800     0.28700
C2199       C  0.83996254  0.88359578  0.10129057     0.37300
C2200       C  0.84330313  0.89321220  0.13710668     0.37300
C2201       C  0.67660931  0.87072481  0.10641897     0.37300
C2202       C  0.67926241  0.87881041  0.14233459     0.37300
C2203       C  0.77184348  0.89323957  0.05215542    -0.20200
C2204       C  0.73197446  0.89122908  0.05340086    -0.20200
C2205       C  0.78136753  0.93131434  0.18400401    -0.20200
C2206       C  0.74169907  0.92823743  0.18515279    -0.20200
C2207       C  0.87876156  0.88063786  0.10713707    -0.21300
C2208       C  0.88096152  0.88720653  0.12968961    -0.21200
C2209       C  0.64302306  0.85470277  0.11511850    -0.21300
C2210       C  0.64498564  0.85929664  0.13790871    -0.21200
C2211       C  0.82569616  0.88269573  0.07910957    -0.16600
C2212       C  0.68532098  0.87407049  0.08342999    -0.16600
C2213       C  0.69107765  0.89341602  0.16335860    -0.16600
C2214       C  0.83270080  0.90560877  0.15880072    -0.16600
H2215       H  0.78854490  0.89861601  0.03717051     0.16300
H2216       H  0.71201914  0.89450644  0.03953661     0.16300
H2217       H  0.79916606  0.94713626  0.19573367     0.16300
H2218       H  0.72365399  0.94165932  0.19771708     0.16300
H2219       H  0.90322130  0.87591701  0.09616653     0.14600
H2220       H  0.90768907  0.88881630  0.13906112     0.14600
H2221       H  0.61963337  0.84101557  0.10600945     0.14600
H2222       H  0.62352126  0.84938859  0.14976893     0.14600
H2223       H  0.75815330  0.86917495  0.10375616     0.27900
H2224       H  0.76199017  0.87445894  0.14251716     0.27900
C2225       C  0.65794859  0.58739201  0.81885467    -0.14700
C2226       C  0.62169019  0.57460984  0.82283172    -0.29900
H2227       H  0.66746214  0.58995159  0.80161265     0.14300
H2228       H  0.61208840  0.57018979  0.83990829     0.14900
C2229       C  0.85871090  0.56551454  0.82358884    -0.14700
C2230       C  0.88582066  0.58664135  0.81295765    -0.29900
H2231       H  0.85722561  0.53458493  0.82040467     0.14300
H2232       H  0.88662520  0.61786802  0.81495081     0.14900
C2233       C  0.65087229  0.91369087  0.81332873    -0.14700
C2234       C  0.62354419  0.88895062  0.80620483    -0.29900
H2235       H  0.65201689  0.94279418  0.80636592     0.14300
H2236       H  0.62180133  0.85973964  0.81289347     0.14900
C2237       C  0.84995836  0.88335849  0.80559044    -0.14700
C2238       C  0.88659845  0.89462984  0.80966732    -0.29900
H2239       H  0.84086431  0.87902779  0.78840243     0.14300
H2240       H  0.89567226  0.90020678  0.82674208     0.14900
C2241       C  0.65595567  0.66330202  0.07116991    -0.11600
C2242       C  0.62868586  0.67190501  0.05968944    -0.13100
C2243       C  0.85553047  0.65588070  0.06702771    -0.11600
C2244       C  0.88115438  0.66788275  0.05516390    -0.13100
C2245       C  0.65437703  0.86695134  0.06735850    -0.11600
C2246       C  0.62734016  0.85854616  0.05539158    -0.13100
C2247       C  0.85346701  0.87657138  0.06121167    -0.11600
C2248       C  0.87848343  0.86665520  0.04832236    -0.13100
C2249       C  0.63293587  0.85219710  0.93840601    -0.11600
C2250       C  0.65840721  0.86390040  0.92636611    -0.13100
C2251       C  0.88628709  0.84635422  0.93064908    -0.11600
C2252       C  0.85807611  0.85306185  0.91934668    -0.13100
C2253       C  0.65990567  0.64832607  0.93028537    -0.11600
C2254       C  0.63414732  0.65829895  0.94265724    -0.13100
C2255       C  0.88730601  0.66273362  0.93923880    -0.11600
C2256       C  0.86030082  0.65189574  0.92813000    -0.13100
C2257       C  0.89423291  0.90001959  0.18173303    -0.14700
C2258       C  0.86342100  0.92057372  0.17422409    -0.29900
H2259       H  0.89906168  0.87047139  0.17626577     0.14300
H2260       H  0.85961047  0.95001557  0.18018674     0.14900
C2261       C  0.62523369  0.90895262  0.17996224    -0.14700
C2262       C  0.66270099  0.89824911  0.18222790    -0.29900
H2263       H  0.61177953  0.91190353  0.16366812     0.14300
H2264       H  0.67428409  0.89693439  0.19912153     0.14900
C2265       C  0.85568875  0.57742400  0.17382857    -0.14700
C2266       C  0.88423099  0.59682286  0.18432735    -0.29900
H2267       H  0.85259018  0.54650353  0.17659440     0.14300
H2268       H  0.88781340  0.62775850  0.18178565     0.14900
C2269       C  0.61787574  0.60329010  0.17886664    -0.14700
C2270       C  0.65660636  0.60721588  0.18179611    -0.29900
H2271       H  0.60412650  0.60805002  0.16281388     0.14300
H2272       H  0.66794374  0.60140669  0.19843292     0.14900
C2273       C  0.58624952  0.65085128  0.67948688    -0.14700
C2274       C  0.60316812  0.63389576  0.69722799    -0.29900
H2275       H  0.55943649  0.63905901  0.67279851     0.14300
H2276       H  0.63070715  0.64456796  0.70352191     0.14900
C2277       C  0.59924954  0.88289314  0.67785405    -0.14700
C2278       C  0.62008889  0.85207596  0.68452005    -0.29900
H2279       H  0.58805653  0.88357272  0.66085781     0.14300
H2280       H  0.62877190  0.84907316  0.70189347     0.14900
C2281       C  0.92218460  0.64947100  0.67773753    -0.14700
C2282       C  0.90375750  0.62517170  0.69165902    -0.29900
H2283       H  0.95331265  0.64723484  0.67539223     0.14300
H2284       H  0.87283237  0.62820605  0.69459801     0.14900
C2285       C  0.89817772  0.85052217  0.68171184    -0.14700
C2286       C  0.92282391  0.87808437  0.67495431    -0.29900
H2287       H  0.88840659  0.84942303  0.69894456     0.14300
H2288       H  0.93465519  0.87673398  0.65814061     0.14900
C2289       C  0.86843539  0.65060780  0.56787519    -0.11600
C2290       C  0.85809339  0.62439803  0.55609772    -0.13100
C2291       C  0.84396156  0.87653835  0.55891878    -0.11600
C2292       C  0.85430257  0.84942240  0.57009481    -0.13100
C2293       C  0.65904099  0.62646556  0.55780822    -0.11600
C2294       C  0.64862211  0.65136533  0.57050329    -0.13100
C2295       C  0.65407876  0.85135312  0.57215821    -0.11600
C2296       C  0.65933781  0.87934671  0.56051576    -0.13100
C2297       C  0.60485905  0.62067161  0.31353437    -0.14700
C2298       C  0.59153142  0.65666284  0.31775252    -0.29900
H2299       H  0.63016323  0.60958895  0.32230420     0.14300
H2300       H  0.56758769  0.66812343  0.30798082     0.14900
C2301       C  0.60669613  0.88875496  0.31822140    -0.14700
C2302       C  0.59219650  0.85276457  0.32102880    -0.29900
H2303       H  0.63091938  0.89872298  0.32828393     0.14300
H2304       H  0.56886039  0.84307371  0.31016882     0.14900
C2305       C  0.65297015  0.64741341  0.42850700    -0.11600
C2306       C  0.66293550  0.61969509  0.43933627    -0.13100
C2307       C  0.64334718  0.84763012  0.43349107    -0.11600
C2308       C  0.65268117  0.87459573  0.44502568    -0.13100
C2309       C  0.90637681  0.64835083  0.31611901    -0.14700
C2310       C  0.91024817  0.60949467  0.31857057    -0.29900
H2311       H  0.91122938  0.66003837  0.29947722     0.14300
H2312       H  0.90654130  0.59528850  0.33455954     0.14900
C2313       C  0.91263951  0.87771171  0.31326517    -0.14700
C2314       C  0.93169478  0.84832156  0.32339666    -0.29900
H2315       H  0.88170928  0.88164694  0.31577422     0.14300
H2316       H  0.96260976  0.84500311  0.32059491     0.14900
C2317       C  0.85590495  0.64685390  0.42811869    -0.11600
C2318       C  0.84931338  0.61954910  0.44011398    -0.13100
C2319       C  0.85668331  0.84724405  0.43063904    -0.11600
C2320       C  0.84651668  0.87320350  0.44281762    -0.13100
loop_ 
_geom_bond_atom_site_label_1 
_geom_bond_atom_site_label_2 
_geom_bond_distance 
_geom_bond_site_symmetry_2 
_ccdc_geom_bond_type 
N1            C6   1.352       .  A
N1            C5   1.354       .  A
N1           H33   1.037       .  S
N2            C9   1.354       .  A
N2           C10   1.352       .  A
N3            C8   1.361       .  A
N3            C7   1.358       .  A
N3           H34   1.039       .  S
N4           C11   1.350       .  A
N4           C12   1.354       .  A
C5           C13   1.386       .  A
C5           C21   1.414       .  A
C6           C22   1.413       .  A
C6           C14   1.388       .  A
C7           C15   1.389       .  A
C7           C24   1.427       .  A
C8           C23   1.426       .  A
C8           C16   1.387       .  A
C9           C21   1.415       .  A
C9           C17   1.384       .  A
C10          C24   1.419       .  A
C10          C18   1.390       .  A
C11          C19   1.386       .  A
C11          C22   1.411       .  A
C12          C20   1.386       .  A
C12          C23   1.416       .  A
C13          C14   1.378       .  A
C13          H25   1.082       .  S
C14          H26   1.082       .  S
C15          C16   1.375       .  A
C15          H27   1.082       .  S
C16          H28   1.082       .  S
C17          C18   1.370       .  A
C17          H29   1.082       .  S
C18          H30   1.080       .  S
C19          C20   1.373       .  A
C19          H31   1.082       .  S
C20          H32   1.081       .  S
C21         C579   1.459       .  S
C22         C577   1.447       .  S
C23         C569   1.509       .  S
C24         C574   1.492       .  S
N35          C40   1.352       .  A
N35          C39   1.353       .  A
N35          H67   1.040       .  S
N36          C43   1.354       .  A
N36          C44   1.355       .  A
N37          C42   1.352       .  A
N37          C41   1.354       .  A
N37          H68   1.040       .  S
N38          C45   1.351       .  A
N38          C46   1.350       .  A
C39          C47   1.388       .  A
C39          C55   1.416       .  A
C40          C56   1.409       .  A
C40          C48   1.385       .  A
C41          C49   1.388       .  A
C41          C58   1.417       .  A
C42          C57   1.411       .  A
C42          C50   1.386       .  A
C43          C55   1.417       .  A
C43          C51   1.386       .  A
C44          C58   1.418       .  A
C44          C52   1.387       .  A
C45          C53   1.386       .  A
C45          C56   1.407       .  A
C46          C54   1.388       .  A
C46          C57   1.408       .  A
C47          C48   1.375       .  A
C47          H59   1.081       .  S
C48          H60   1.082       .  S
C49          C50   1.375       .  A
C49          H61   1.081       .  S
C50          H62   1.082       .  S
C51          C52   1.372       .  A
C51          H63   1.083       .  S
C52          H64   1.082       .  S
C53          C54   1.372       .  A
C53          H65   1.082       .  S
C54          H66   1.082       .  S
C55         C558   1.490       .  S
C56         C565   1.448       .  S
C57         C567   1.444       .  S
C58         C562   1.495       .  S
C69          N87   1.350       .  A
C69         C568   1.428       .  S
C69         C106   1.446       .  S
N70          N87   1.327       .  A
N70          N92   1.320       .  A
N70        Co687   2.090       .  S
C71          N96   1.344       .  A
C71         H116   1.082       .  S
C71         C109   1.457       .  S
H72         C113   1.081       .  S
C73          N97   1.336       .  A
C73         H102   1.081       .  S
C73          C77   1.446       .  S
Co74        N114   2.084   1_565  S
Co74         N90   2.075   1_565  S
Co74        N672   2.069       .  S
Co74        N662   2.086       .  S
Co74       Cl118   2.438   1_565  S
N75         C113   1.347       .  A
N75          N82   1.320       .  A
N75        Co656   2.100       .  S
Co76         N96   2.088       .  S
Co76         N83   2.101       .  S
Co76        N655   2.101   1_545  S
Co76        N659   2.087   1_545  S
Co76       Cl118   2.467       .  S
C77         N115   1.350       .  A
C77         C551   1.431       .  S
N78          N85   1.320       .  A
N78         N108   1.323       .  A
N78        Co691   2.079       .  S
N79          N97   1.321       .  A
N79         N115   1.328       .  A
N79        Co656   2.090       .  S
N80         C109   1.344       .  A
N80          N90   1.322       .  A
H81         C106   1.082       .  S
N82         N103   1.325       .  A
N82        Co654   2.085       .  S
N83         N101   1.321       .  A
N83          N88   1.329       .  A
C84          N88   1.352       .  A
C84         C550   1.435       .  S
C84         C112   1.447       .  S
N85         C100   1.345       .  A
N85        Co687   2.091       .  S
C86         N114   1.338       .  A
C86         H120   1.081       .  S
C86          C89   1.451       .  S
C89         N110   1.348       .  A
C89         C566   1.434       .  S
N90          N96   1.320       .  A
N91         C117   1.345       .  A
N91          N93   1.321       .  A
N91        Co107   2.095       .  S
N92         C106   1.334       .  A
N92        Co654   2.065       .  S
N93         N121   1.323       .  A
N93        Co111   2.079       .  S
H94         C117   1.082       .  S
H95         C112   1.082       .  S
N97        Co691   2.071       .  S
N98         N110   1.327       .  A
N98         N114   1.322       .  A
N98        Co107   2.088       .  S
C99         N103   1.347       .  A
C99         C580   1.445       .  S
C99         C113   1.462       .  S
C100        H104   1.081       .  S
C100        C119   1.458       .  S
N101        C112   1.336       .  A
N101       Co111   2.069       .  S
C105        N121   1.346       .  A
C105        C553   1.438       .  S
C105        C117   1.459       .  S
Co107       N650   2.096   1_545  S
Co107       N665   2.089   1_545  S
Co107      Cl118   2.467       .  S
N108        C119   1.344       .  A
C109        C578   1.432       .  S
Co111       N658   2.068   1_545  S
Co111       N677   2.074   1_545  S
Co111      Cl118   2.436       .  S
C119        C556   1.437       .  S
N122        C127   1.353       .  A
N122        C126   1.354       .  A
N122        H154   1.038       .  S
N123        C130   1.354       .  A
N123        C131   1.352       .  A
N124        C129   1.355       .  A
N124        C128   1.353       .  A
N124        H155   1.037       .  S
N125        C132   1.349       .  A
N125        C133   1.349       .  A
C126        C134   1.386       .  A
C126        C142   1.416       .  A
C127        C143   1.415       .  A
C127        C135   1.388       .  A
C128        C136   1.387       .  A
C128        C145   1.414       .  A
C129        C144   1.417       .  A
C129        C137   1.388       .  A
C130        C142   1.414       .  A
C130        C138   1.386       .  A
C131        C145   1.413       .  A
C131        C139   1.386       .  A
C132        C140   1.387       .  A
C132        C143   1.409       .  A
C133        C141   1.387       .  A
C133        C144   1.410       .  A
C134        C135   1.374       .  A
C134        H146   1.082       .  S
C135        H147   1.082       .  S
C136        C137   1.375       .  A
C136        H148   1.081       .  S
C137        H149   1.082       .  S
C138        C139   1.374       .  A
C138        H150   1.082       .  S
C139        H151   1.082       .  S
C140        C141   1.375       .  A
C140        H152   1.082       .  S
C141        H153   1.082       .  S
C142        C545   1.496       .  S
C143        C552   1.447       .  S
C144        C549   1.451       .  S
C145        C541   1.481       .  S
N156        C161   1.352       .  A
N156        C160   1.355       .  A
N156        H188   1.038       .  S
N157        C164   1.350       .  A
N157        C165   1.350       .  A
N158        C163   1.354       .  A
N158        C162   1.355       .  A
N158        H189   1.039       .  S
N159        C166   1.353       .  A
N159        C167   1.353       .  A
C160        C168   1.389       .  A
C160        C176   1.417       .  A
C161        C177   1.412       .  A
C161        C169   1.386       .  A
C162        C170   1.387       .  A
C162        C179   1.415       .  A
C163        C178   1.418       .  A
C163        C171   1.387       .  A
C164        C176   1.411       .  A
C164        C172   1.387       .  A
C165        C179   1.410       .  A
C165        C173   1.387       .  A
C166        C174   1.385       .  A
C166        C177   1.412       .  A
C167        C175   1.387       .  A
C167        C178   1.414       .  A
C168        C169   1.375       .  A
C168        H180   1.082       .  S
C169        H181   1.082       .  S
C170        C171   1.374       .  A
C170        H182   1.082       .  S
C171        H183   1.082       .  S
C172        C173   1.375       .  A
C172        H184   1.082       .  S
C173        H185   1.082       .  S
C174        C175   1.376       .  A
C174        H186   1.082       .  S
C175        H187   1.082       .  S
C176        C554   1.453       .  S
C177        C533   1.481       .  S
C178        C538   1.496       .  S
C179        C555   1.452       .  S
C190        N208   1.342       .  A
C190        C570   1.479       .  S
C190        C227   1.471       .  S
N191        N208   1.321       .  A
N191        N213   1.321       .  A
N191      Co1388   2.076       .  S
C192        N217   1.351       .  A
C192        H237   1.081       .  S
C192        C230   1.472       .  S
H193        C234   1.081       .  S
C194        N218   1.351       .  A
C194        H223   1.081       .  S
C194        C198   1.470       .  S
Co195       N203   2.101       .  S
Co195       N211   2.073       .  S
Co195       N793   2.112       .  S
Co195       N815   2.074       .  S
Co195     Cl1399   2.455       .  S
N196        C234   1.333       .  A
N196        N203   1.319       .  A
N196      Co1357   2.071       .  S
Co197       N200   2.078       .  S
Co197       N204   2.100       .  S
Co197      N1356   2.078   1_455  S
Co197      N1377   2.110   1_455  S
Co197      Cl239   2.438       .  S
C198        N236   1.344       .  A
C198        C561   1.483       .  S
N199        N206   1.320       .  A
N199        N229   1.331       .  A
N199       Co812   2.102       .  S
N200        N218   1.321       .  A
N200        N236   1.320       .  A
N201        C230   1.342       .  A
N201        N211   1.321       .  A
H202        C227   1.081       .  S
N203        N224   1.331       .  A
N204        N222   1.321       .  A
N204        N209   1.330       .  A
C205        N209   1.355       .  A
C205        C521   1.469       .  S
C205        C233   1.447       .  S
N206        C221   1.332       .  A
N206       Co228   2.072       .  S
C207        N235   1.329       .  A
C207        H241   1.081       .  S
C207        C210   1.448       .  S
C210        N231   1.357       .  A
C210        C526   1.471       .  S
N211        N217   1.320       .  A
N212        C238   1.352       .  A
N212        N214   1.324       .  A
N212       Co228   2.123       .  S
N213        C227   1.351       .  A
N213       Co775   2.110   1_545  S
N214        N242   1.321       .  A
N214       Co812   2.073       .  S
H215        C238   1.081       .  S
H216        C233   1.082       .  S
N217      Co1357   2.109       .  S
N218       Co232   2.103       .  S
N219        N231   1.329       .  A
N219        N235   1.318       .  A
N219      Co1388   2.090       .  S
C220        N224   1.358       .  A
C220        C573   1.480       .  S
C220        C234   1.451       .  S
C221        H225   1.081       .  S
C221        C240   1.453       .  S
N222        C233   1.334       .  A
N222       Co232   2.072       .  S
C226        N242   1.341       .  A
C226        C529   1.482       .  S
C226        C238   1.474       .  S
Co228      N1351   2.089   1_455  S
Co228      N1379   2.100   1_455  S
Co228      Cl819   2.452   1_545  S
N229        C240   1.358       .  A
C230        C517   1.481       .  S
Co232       N779   2.097       .  S
Co232       N794   2.076       .  S
Co232      Cl239   2.465       .  S
N235       Co775   2.060   1_545  S
Cl239     Co1355   2.457   1_455  S
Cl239      Co808   2.444       .  S
C240        C557   1.484       .  S
C243        N261   1.350       .  A
C243        C511   1.433       .  S
C243        C280   1.447       .  S
N244        N261   1.328       .  A
N244        N266   1.322       .  A
N244      Co1441   2.095       .  S
C245        N270   1.346       .  A
C245        H290   1.081       .  S
C245        C283   1.461       .  S
H246        C287   1.082       .  S
C247        N271   1.338       .  A
C247        H276   1.081       .  S
C247        C251   1.450       .  S
Co248       N288   2.078       .  S
Co248       N264   2.075       .  S
Co248      N1426   2.070   1_455  S
Co248      N1416   2.082   1_455  S
Co248      Cl292   2.438       .  S
N249        C287   1.341       .  A
N249        N256   1.320       .  A
N249      Co1410   2.077   1_556  S
Co250       N270   2.096   1_554  S
Co250       N257   2.088       .  S
Co250      N1409   2.091   1_454  S
Co250      N1413   2.091   1_455  S
Co250      Cl292   2.466   1_554  S
C251        N289   1.349       .  A
C251        C504   1.435       .  S
N252        N259   1.320       .  A
N252        N282   1.322       .  A
N252      Co1445   2.071       .  S
N253        N271   1.321       .  A
N253        N289   1.328       .  A
N253      Co1410   2.094       .  S
N254        C283   1.344       .  A
N254        N264   1.323       .  A
H255        C280   1.081       .  S
N256        N277   1.323       .  A
N256      Co1408   2.083       .  S
N257        N275   1.321       .  A
N257        N262   1.326       .  A
C258        N262   1.349       .  A
C258        C502   1.427       .  S
C258        C286   1.446       .  S
N259        C274   1.347       .  A
N259      Co1441   2.100   1_554  S
C260        N288   1.338       .  A
C260        H294   1.081       .  S
C260        C263   1.450       .  S
C263        N284   1.350       .  A
C263        C509   1.436       .  S
N264        N270   1.320       .  A
N265        C291   1.348       .  A
N265        N267   1.321       .  A
N265       Co281   2.103   1_554  S
N266        C280   1.336       .  A
N266      Co1408   2.073       .  S
N267        N295   1.323       .  A
N267       Co285   2.081       .  S
H268        C291   1.081       .  S
H269        C286   1.082       .  S
N271      Co1445   2.077       .  S
N272        N284   1.328       .  A
N272        N288   1.321       .  A
N272       Co281   2.094       .  S
C273        N277   1.347       .  A
C273        C515   1.431       .  S
C273        C287   1.453       .  S
C274        H278   1.081       .  S
C274        C293   1.462       .  S
N275        C286   1.336       .  A
N275       Co285   2.066       .  S
C279        N295   1.344       .  A
C279        C506   1.442       .  S
C279        C291   1.463       .  S
Co281      N1404   2.101   1_455  S
Co281      N1419   2.097   1_456  S
Co281      Cl292   2.467       .  S
N282        C293   1.343       .  A
C283        C514   1.437       .  S
Co285      N1412   2.070   1_455  S
Co285      N1431   2.079   1_455  S
Co285      Cl292   2.438   1_554  S
C293        C508   1.436       .  S
N296        C301   1.356       .  A
N296        C300   1.353       .  A
N296        H328   1.041       .  S
N297        C304   1.349       .  A
N297        C305   1.350       .  A
N298        C303   1.354       .  A
N298        C302   1.354       .  A
N298        H329   1.032       .  S
N299        C306   1.350       .  A
N299        C307   1.351       .  A
C300        C308   1.386       .  A
C300        C316   1.412       .  A
C301        C317   1.419       .  A
C301        C309   1.388       .  A
C302        C310   1.387       .  A
C302        C319   1.418       .  A
C303        C318   1.421       .  A
C303        C311   1.389       .  A
C304        C316   1.409       .  A
C304        C312   1.387       .  A
C305        C319   1.412       .  A
C305        C313   1.387       .  A
C306        C314   1.386       .  A
C306        C317   1.411       .  A
C307        C315   1.389       .  A
C307        C318   1.415       .  A
C308        C309   1.375       .  A
C308        H320   1.083       .  S
C309        H321   1.082       .  S
C310        C311   1.371       .  A
C310        H322   1.082       .  S
C311        H323   1.080       .  S
C312        C313   1.374       .  A
C312        H324   1.082       .  S
C313        H325   1.082       .  S
C314        C315   1.372       .  A
C314        H326   1.082       .  S
C315        H327   1.082       .  S
C316        C512   1.448       .  S
C317        C497   1.496       .  S
C318        C493   1.485       .  S
C319        C510   1.451       .  S
N330        C335   1.353       .  A
N330        C334   1.351       .  A
N330        H362   1.035       .  S
N331        C338   1.353       .  A
N331        C339   1.353       .  A
N332        C337   1.357       .  A
N332        C336   1.358       .  A
N332        H363   1.037       .  S
N333        C340   1.354       .  A
N333        C341   1.354       .  A
C334        C342   1.388       .  A
C334        C350   1.413       .  A
C335        C351   1.414       .  A
C335        C343   1.388       .  A
C336        C344   1.389       .  A
C336        C353   1.424       .  A
C337        C352   1.421       .  A
C337        C345   1.387       .  A
C338        C350   1.413       .  A
C338        C346   1.385       .  A
C339        C353   1.420       .  A
C339        C347   1.389       .  A
C340        C348   1.385       .  A
C340        C351   1.414       .  A
C341        C349   1.388       .  A
C341        C352   1.420       .  A
C342        C343   1.376       .  A
C342        H354   1.083       .  S
C343        H355   1.082       .  S
C344        C345   1.374       .  A
C344        H356   1.081       .  S
C345        H357   1.082       .  S
C346        C347   1.367       .  A
C346        H358   1.082       .  S
C347        H359   1.080       .  S
C348        C349   1.372       .  A
C348        H360   1.082       .  S
C349        H361   1.081       .  S
C350        C516   1.448       .  S
C351        C513   1.453       .  S
C352        C485   1.500       .  S
C353        C489   1.498       .  S
C364        N382   1.356       .  A
C364        C546   1.473       .  S
C364        C401   1.447       .  S
N365        N382   1.332       .  A
N365        N387   1.321       .  A
N365       Co402   2.104       .  S
C366        N391   1.346       .  A
C366        H411   1.081       .  S
C366        C404   1.463       .  S
H367        C408   1.081       .  S
C368        N392   1.341       .  A
C368        H397   1.082       .  S
C368        C372   1.465       .  S
Co369       N377   2.062       .  S
Co369      N1547   2.074   1_455  S
Co369      N2149   2.057   1_455  S
Co369       N965   2.077       .  S
Co369      Cl413   2.441       .  S
N370        C408   1.350       .  A
N370        N377   1.318       .  A
N370       Co371   2.102       .  S
Co371       N374   2.069       .  S
Co371       N971   2.093       .  S
Co371       N958   2.089       .  S
Co371      Cl413   2.456       .  S
C372        N410   1.348       .  A
C372        C494   1.467       .  S
N373        N380   1.320       .  A
N373        N403   1.319       .  A
N373      Co1566   2.072       .  S
N374        N392   1.319       .  A
N374        N410   1.320       .  A
N375        C404   1.348       .  A
N375        N385   1.321       .  A
H376        C401   1.081       .  S
N377        N398   1.319       .  A
N378        N396   1.322       .  A
N378        N383   1.326       .  A
N378       Co951   2.090   1_545  S
C379        N383   1.352       .  A
C379        C486   1.480       .  S
C379        C407   1.460       .  S
N380        C395   1.344       .  A
N380       Co402   2.090       .  S
C381        N409   1.335       .  A
C381        H415   1.081       .  S
C381        C384   1.455       .  S
C384        N405   1.352       .  A
C384        C542   1.474       .  S
N385        N391   1.319       .  A
N385       Co949   2.074       .  S
N386        C412   1.338       .  A
N386        N388   1.321       .  A
N386       Co982   2.077   1_545  S
N387        C401   1.335       .  A
N387      Co1529   2.078       .  S
N388        N416   1.327       .  A
N388      Co2146   2.103   1_545  S
H389        C412   1.082       .  S
H390        C407   1.082       .  S
N391       Co951   2.094   1_545  S
N392       Co406   2.095       .  S
N393        N405   1.328       .  A
N393        N409   1.319       .  A
N393       Co982   2.098   1_545  S
C394        N398   1.341       .  A
C394        C537   1.470       .  S
C394        C408   1.468       .  S
C395        H399   1.082       .  S
C395        C414   1.470       .  S
N396        C407   1.342       .  A
N396       Co986   2.091   1_545  S
C400        N416   1.354       .  A
C400        C490   1.471       .  S
C400        C412   1.454       .  S
Co402       N966   2.077       .  S
Co402       N973   2.094       .  S
Co402     Cl1573   2.465       .  S
N403        C414   1.344       .  A
C404        C534   1.477       .  S
Co406      N1533   2.074   1_455  S
Co406      N2128   2.113   1_455  S
Co406       N976   2.088       .  S
Co406      Cl413   2.440       .  S
N409      Co2109   2.064       .  S
Cl413     Co1562   2.460   1_455  S
C414        C498   1.472       .  S
N417        C422   1.360       .  A
N417        C421   1.356       .  A
N417        H449   1.040       .  S
N418        C425   1.349       .  A
N418        C426   1.352       .  A
N419        C424   1.349       .  A
N419        C423   1.352       .  A
N419        H450   1.039       .  S
N420        C427   1.353       .  A
N420        C428   1.349       .  A
C421        C429   1.390       .  A
C421        C437   1.424       .  A
C422        C438   1.425       .  A
C422        C430   1.387       .  A
C423        C431   1.386       .  A
C423        C440   1.409       .  A
C424        C439   1.409       .  A
C424        C432   1.388       .  A
C425        C437   1.414       .  A
C425        C433   1.390       .  A
C426        C440   1.410       .  A
C426        C434   1.384       .  A
C427        C435   1.386       .  A
C427        C438   1.414       .  A
C428        C436   1.385       .  A
C428        C439   1.408       .  A
C429        C430   1.377       .  A
C429        H441   1.082       .  S
C430        H442   1.082       .  S
C431        C432   1.378       .  A
C431        H443   1.082       .  S
C432        H444   1.082       .  S
C433        C434   1.369       .  A
C433        H445   1.080       .  S
C434        H446   1.082       .  S
C435        C436   1.374       .  A
C435        H447   1.081       .  S
C436        H448   1.082       .  S
C437        C525   1.483       .  S
C438        C530   1.510       .  S
C439        C501   1.441       .  S
C440        C503   1.450       .  S
N451        C456   1.353       .  A
N451        C455   1.351       .  A
N451        H483   1.040       .  S
N452        C459   1.350       .  A
N452        C460   1.354       .  A
N453        C458   1.356       .  A
N453        C457   1.358       .  A
N453        H484   1.042       .  S
N454        C461   1.351       .  A
N454        C462   1.350       .  A
C455        C463   1.387       .  A
C455        C471   1.411       .  A
C456        C472   1.413       .  A
C456        C464   1.387       .  A
C457        C465   1.388       .  A
C457        C474   1.423       .  A
C458        C473   1.422       .  A
C458        C466   1.388       .  A
C459        C471   1.411       .  A
C459        C467   1.386       .  A
C460        C474   1.415       .  A
C460        C468   1.386       .  A
C461        C469   1.385       .  A
C461        C472   1.410       .  A
C462        C470   1.387       .  A
C462        C473   1.414       .  A
C463        C464   1.381       .  A
C463        H475   1.082       .  S
C464        H476   1.082       .  S
C465        C466   1.377       .  A
C465        H477   1.082       .  S
C466        H478   1.082       .  S
C467        C468   1.376       .  A
C467        H479   1.082       .  S
C468        H480   1.081       .  S
C469        C470   1.376       .  A
C469        H481   1.082       .  S
C470        H482   1.082       .  S
C471        C507   1.450       .  S
C472        C505   1.455       .  S
C473        C522   1.499       .  S
C474        C518   1.508       .  S
C485        C486   1.346       .  D
C485        H487   1.087       .  S
C486        H488   1.086       .  S
C489        C490   1.346       .  D
C489        H491   1.086       .  S
C490        H492   1.086       .  S
C493        C494   1.345       .  D
C493        H495   1.087       .  S
C494        H496   1.086       .  S
C497        C498   1.340       .  D
C497        H499   1.086       .  S
C498        H500   1.086       .  S
C501        C502   1.201       .  T
C503        C504   1.206       .  T
C505        C506   1.210       .  T
C507        C508   1.207       .  T
C509        C510   1.206       .  T
C511        C512   1.205       .  T
C513        C514   1.208       .  T
C515        C516   1.204       .  T
C517        C518   1.354       .  D
C517        H519   1.081       .  S
C518        H520   1.087       .  S
C521        C522   1.348       .  D
C521        H523   1.083       .  S
C522        H524   1.087       .  S
C525        C526   1.348       .  D
C525        H527   1.085       .  S
C526        H528   1.086       .  S
C529        C530   1.356       .  D
C529        H531   1.082       .  S
C530        H532   1.086       .  S
C533        C534   1.343       .  D
C533        H535   1.087       .  S
C534        H536   1.086       .  S
C537        C538   1.342       .  D
C537        H539   1.087       .  S
C538        H540   1.086       .  S
C541        C542   1.343       .  D
C541        H543   1.086       .  S
C542        H544   1.086       .  S
C545        C546   1.343       .  D
C545        H547   1.086       .  S
C546        H548   1.087       .  S
C549        C550   1.206       .  T
C551        C552   1.204       .  T
C553        C554   1.208       .  T
C555        C556   1.207       .  T
C557        C558   1.350       .  D
C557        H559   1.086       .  S
C558        H560   1.084       .  S
C561        C562   1.351       .  D
C561        H563   1.086       .  S
C562        H564   1.087       .  S
C565        C566   1.205       .  T
C567        C568   1.202       .  T
C569        C570   1.354       .  D
C569        H571   1.087       .  S
C570        H572   1.083       .  S
C573        C574   1.350       .  D
C573        H575   1.086       .  S
C574        H576   1.085       .  S
C577        C578   1.204       .  T
C579        C580   1.212       .  T
N581        C586   1.350       .  A
N581        C585   1.353       .  A
N581        H613   1.039       .  S
N582        C589   1.354       .  A
N582        C590   1.350       .  A
N583        C588   1.361       .  A
N583        C587   1.356       .  A
N583        H614   1.040       .  S
N584        C591   1.350       .  A
N584        C592   1.353       .  A
C585        C593   1.386       .  A
C585        C601   1.412       .  A
C586        C602   1.411       .  A
C586        C594   1.389       .  A
C587        C595   1.389       .  A
C587        C604   1.424       .  A
C588        C603   1.426       .  A
C588        C596   1.388       .  A
C589        C601   1.413       .  A
C589        C597   1.384       .  A
C590        C604   1.415       .  A
C590        C598   1.389       .  A
C591        C599   1.386       .  A
C591        C602   1.410       .  A
C592        C600   1.386       .  A
C592        C603   1.415       .  A
C593        C594   1.379       .  A
C593        H605   1.082       .  S
C594        H606   1.082       .  S
C595        C596   1.375       .  A
C595        H607   1.082       .  S
C596        H608   1.082       .  S
C597        C598   1.371       .  A
C597        H609   1.082       .  S
C598        H610   1.080       .  S
C599        C600   1.375       .  A
C599        H611   1.082       .  S
C600        H612   1.082       .  S
C601       C1159   1.458       .  S
C602       C1157   1.444       .  S
C603       C1149   1.511       .  S
C604       C1154   1.486       .  S
N615        C620   1.352       .  A
N615        C619   1.353       .  A
N615        H647   1.039       .  S
N616        C623   1.353       .  A
N616        C624   1.353       .  A
N617        C622   1.353       .  A
N617        C621   1.354       .  A
N617        H648   1.040       .  S
N618        C625   1.352       .  A
N618        C626   1.351       .  A
C619        C627   1.388       .  A
C619        C635   1.414       .  A
C620        C636   1.410       .  A
C620        C628   1.386       .  A
C621        C629   1.387       .  A
C621        C638   1.415       .  A
C622        C637   1.412       .  A
C622        C630   1.387       .  A
C623        C635   1.415       .  A
C623        C631   1.387       .  A
C624        C638   1.416       .  A
C624        C632   1.387       .  A
C625        C633   1.386       .  A
C625        C636   1.410       .  A
C626        C634   1.387       .  A
C626        C637   1.411       .  A
C627        C628   1.373       .  A
C627        H639   1.081       .  S
C628        H640   1.082       .  S
C629        C630   1.374       .  A
C629        H641   1.082       .  S
C630        H642   1.082       .  S
C631        C632   1.371       .  A
C631        H643   1.083       .  S
C632        H644   1.082       .  S
C633        C634   1.374       .  A
C633        H645   1.082       .  S
C634        H646   1.082       .  S
C635       C1138   1.486       .  S
C636       C1145   1.449       .  S
C637       C1147   1.449       .  S
C638       C1142   1.489       .  S
C649        N667   1.351       .  A
C649       C1148   1.434       .  S
C649        C686   1.446       .  S
N650        N667   1.328       .  A
N650        N672   1.320       .  A
C651        N676   1.344       .  A
C651        H696   1.081       .  S
C651        C689   1.458       .  S
H652        C693   1.081       .  S
C653        N677   1.336       .  A
C653        H682   1.081       .  S
C653        C657   1.447       .  S
Co654       N694   2.084       .  S
Co654       N670   2.071       .  S
Co654      Cl698   2.433       .  S
N655        C693   1.347       .  A
N655        N662   1.321       .  A
Co656       N676   2.091       .  S
Co656       N663   2.103       .  S
Co656      Cl698   2.469       .  S
C657        N695   1.349       .  A
C657       C1131   1.430       .  S
N658        N665   1.320       .  A
N658        N688   1.320       .  A
N659        N677   1.321       .  A
N659        N695   1.327       .  A
N660        C689   1.342       .  A
N660        N670   1.321       .  A
H661        C686   1.081       .  S
N662        N683   1.325       .  A
N663        N681   1.321       .  A
N663        N668   1.329       .  A
C664        N668   1.353       .  A
C664       C1130   1.436       .  S
C664        C692   1.447       .  S
N665        C680   1.345       .  A
C666        N694   1.339       .  A
C666        H700   1.081       .  S
C666        C669   1.450       .  S
C669        N690   1.349       .  A
C669       C1146   1.435       .  S
N670        N676   1.321       .  A
N671        C697   1.346       .  A
N671        N673   1.320       .  A
N671       Co687   2.095       .  S
N672        C686   1.336       .  A
N673        N701   1.322       .  A
N673       Co691   2.075       .  S
H674        C697   1.081       .  S
H675        C692   1.082       .  S
N678        N690   1.327       .  A
N678        N694   1.321       .  A
N678       Co687   2.088       .  S
C679        N683   1.347       .  A
C679       C1160   1.445       .  S
C679        C693   1.462       .  S
C680        H684   1.081       .  S
C680        C699   1.459       .  S
N681        C692   1.336       .  A
N681       Co691   2.070       .  S
C685        N701   1.344       .  A
C685       C1133   1.437       .  S
C685        C697   1.461       .  S
Co687      Cl698   2.470       .  S
N688        C699   1.341       .  A
C689       C1158   1.430       .  S
Co691      Cl698   2.434       .  S
C699       C1136   1.429       .  S
N702        C707   1.352       .  A
N702        C706   1.352       .  A
N702        H734   1.039       .  S
N703        C710   1.352       .  A
N703        C711   1.351       .  A
N704        C709   1.355       .  A
N704        C708   1.352       .  A
N704        H735   1.037       .  S
N705        C712   1.349       .  A
N705        C713   1.349       .  A
C706        C714   1.386       .  A
C706        C722   1.414       .  A
C707        C723   1.413       .  A
C707        C715   1.389       .  A
C708        C716   1.387       .  A
C708        C725   1.414       .  A
C709        C724   1.417       .  A
C709        C717   1.388       .  A
C710        C722   1.410       .  A
C710        C718   1.386       .  A
C711        C725   1.410       .  A
C711        C719   1.387       .  A
C712        C720   1.386       .  A
C712        C723   1.408       .  A
C713        C721   1.387       .  A
C713        C724   1.409       .  A
C714        C715   1.375       .  A
C714        H726   1.082       .  S
C715        H727   1.082       .  S
C716        C717   1.376       .  A
C716        H728   1.082       .  S
C717        H729   1.082       .  S
C718        C719   1.374       .  A
C718        H730   1.082       .  S
C719        H731   1.082       .  S
C720        C721   1.375       .  A
C720        H732   1.082       .  S
C721        H733   1.082       .  S
C722       C1125   1.489       .  S
C723       C1132   1.446       .  S
C724       C1129   1.451       .  S
C725       C1121   1.476       .  S
N736        C741   1.351       .  A
N736        C740   1.356       .  A
N736        H768   1.035       .  S
N737        C744   1.350       .  A
N737        C745   1.348       .  A
N738        C743   1.353       .  A
N738        C742   1.353       .  A
N738        H769   1.037       .  S
N739        C746   1.354       .  A
N739        C747   1.355       .  A
C740        C748   1.388       .  A
C740        C756   1.418       .  A
C741        C757   1.415       .  A
C741        C749   1.387       .  A
C742        C750   1.387       .  A
C742        C759   1.414       .  A
C743        C758   1.420       .  A
C743        C751   1.388       .  A
C744        C756   1.410       .  A
C744        C752   1.386       .  A
C745        C759   1.408       .  A
C745        C753   1.387       .  A
C746        C754   1.386       .  A
C746        C757   1.417       .  A
C747        C755   1.386       .  A
C747        C758   1.417       .  A
C748        C749   1.374       .  A
C748        H760   1.082       .  S
C749        H761   1.082       .  S
C750        C751   1.374       .  A
C750        H762   1.083       .  S
C751        H763   1.082       .  S
C752        C753   1.373       .  A
C752        H764   1.082       .  S
C753        H765   1.082       .  S
C754        C755   1.376       .  A
C754        H766   1.082       .  S
C755        H767   1.082       .  S
C756       C1134   1.453       .  S
C757       C1113   1.484       .  S
C758       C1118   1.497       .  S
C759       C1135   1.446       .  S
C770        N788   1.344       .  A
C770       C1150   1.482       .  S
C770        C807   1.471       .  S
N771        N788   1.322       .  A
N771        N793   1.323       .  A
N771      Co1968   2.080       .  S
C772        N797   1.353       .  A
C772        H817   1.081       .  S
C772        C810   1.475       .  S
H773        C814   1.081       .  S
C774        N798   1.350       .  A
C774        H803   1.081       .  S
C774        C778   1.470       .  S
Co775       N783   2.092       .  S
Co775       N791   2.070       .  S
Co775     Cl1979   2.444       .  S
N776        C814   1.332       .  A
N776        N783   1.319       .  A
N776      Co1937   2.069       .  S
Co777      N1936   2.069   1_455  S
Co777       N780   2.070       .  S
Co777      N1957   2.108   1_455  S
Co777       N784   2.105       .  S
Co777      Cl819   2.446       .  S
C778        N816   1.342       .  A
C778       C1141   1.479       .  S
N779        N786   1.320       .  A
N779        N809   1.331       .  A
N780        N798   1.321       .  A
N780        N816   1.317       .  A
N781        C810   1.342       .  A
N781        N791   1.319       .  A
H782        C807   1.081       .  S
N783        N804   1.329       .  A
N784        N802   1.322       .  A
N784        N789   1.331       .  A
C785        N789   1.357       .  A
C785       C1101   1.473       .  S
C785        C813   1.447       .  S
N786        C801   1.329       .  A
N786       Co808   2.068       .  S
C787        N815   1.333       .  A
C787        H821   1.081       .  S
C787        C790   1.452       .  S
C790        N811   1.356       .  A
C790       C1106   1.476       .  S
N791        N797   1.320       .  A
N792        C818   1.351       .  A
N792        N794   1.322       .  A
N792       Co808   2.115       .  S
N793        C807   1.351       .  A
N794        N822   1.322       .  A
H795        C818   1.081       .  S
H796        C813   1.082       .  S
N797      Co1937   2.113       .  S
N798       Co812   2.100   1_565  S
N799        N811   1.329       .  A
N799        N815   1.320       .  A
N799      Co1968   2.096       .  S
C800        N804   1.356       .  A
C800       C1153   1.475       .  S
C800        C814   1.452       .  S
C801        H805   1.080       .  S
C801        C820   1.452       .  S
N802        C813   1.335       .  A
N802       Co812   2.077   1_565  S
C806        N822   1.343       .  A
C806       C1109   1.482       .  S
C806        C818   1.472       .  S
Co808      N1931   2.075   1_455  S
Co808      N1959   2.092   1_455  S
N809        C820   1.358       .  A
C810       C1097   1.485       .  S
Co812      Cl819   2.459   1_545  S
Cl819     Co1935   2.445   1_455  S
C820       C1137   1.480       .  S
C823        N841   1.350       .  A
C823       C1091   1.427       .  S
C823        C860   1.443       .  S
N824        N841   1.327       .  A
N824        N846   1.321       .  A
N824      Co2021   2.094       .  S
C825        N850   1.349       .  A
C825        H870   1.082       .  S
C825        C863   1.466       .  S
H826        C867   1.081       .  S
C827        N851   1.338       .  A
C827        H856   1.081       .  S
C827        C831   1.450       .  S
Co828      N2006   2.068   1_455  S
Co828      N1996   2.080   1_455  S
Co828       N868   2.074       .  S
Co828       N844   2.073       .  S
Co828      Cl872   2.437       .  S
N829        C867   1.343       .  A
N829        N836   1.320       .  A
N829      Co1990   2.084   1_556  S
Co830      N1989   2.081   1_454  S
Co830      N1993   2.099   1_455  S
Co830       N850   2.105   1_554  S
Co830       N837   2.079       .  S
Co830      Cl872   2.468   1_554  S
C831        N869   1.350       .  A
C831       C1084   1.436       .  S
N832        N839   1.320       .  A
N832        N862   1.322       .  A
N832      Co2025   2.079       .  S
N833        N851   1.321       .  A
N833        N869   1.328       .  A
N833      Co1990   2.095       .  S
N834        C863   1.343       .  A
N834        N844   1.323       .  A
H835        C860   1.081       .  S
N836        N857   1.326       .  A
N836      Co1988   2.093       .  S
N837        N855   1.322       .  A
N837        N842   1.324       .  A
C838        N842   1.346       .  A
C838       C1082   1.422       .  S
C838        C866   1.445       .  S
N839        C854   1.345       .  A
N839      Co2021   2.091   1_554  S
C840        N868   1.337       .  A
C840        H874   1.081       .  S
C840        C843   1.449       .  S
C843        N864   1.350       .  A
C843       C1089   1.433       .  S
N844        N850   1.320       .  A
N845        C871   1.348       .  A
N845        N847   1.320       .  A
N845       Co861   2.102   1_554  S
N846        C860   1.334       .  A
N846      Co1988   2.061       .  S
N847        N875   1.323       .  A
N847       Co865   2.079       .  S
H848        C871   1.081       .  S
H849        C866   1.081       .  S
N851      Co2025   2.077       .  S
N852        N864   1.328       .  A
N852        N868   1.321       .  A
N852       Co861   2.097       .  S
C853        N857   1.349       .  A
C853       C1095   1.439       .  S
C853        C867   1.455       .  S
C854        H858   1.081       .  S
C854        C873   1.458       .  S
N855        C866   1.335       .  A
N855       Co865   2.071       .  S
C859        N875   1.344       .  A
C859       C1086   1.442       .  S
C859        C871   1.464       .  S
Co861      N1984   2.099   1_455  S
Co861      N1999   2.100   1_456  S
Co861      Cl872   2.468       .  S
N862        C873   1.345       .  A
C863       C1094   1.443       .  S
Co865      N1992   2.074   1_455  S
Co865      N2011   2.074   1_455  S
Co865      Cl872   2.436   1_554  S
C873       C1088   1.435       .  S
N876        C881   1.355       .  A
N876        C880   1.352       .  A
N876        H908   1.040       .  S
N877        C884   1.347       .  A
N877        C885   1.349       .  A
N878        C883   1.352       .  A
N878        C882   1.355       .  A
N878        H909   1.033       .  S
N879        C886   1.353       .  A
N879        C887   1.352       .  A
C880        C888   1.387       .  A
C880        C896   1.413       .  A
C881        C897   1.419       .  A
C881        C889   1.387       .  A
C882        C890   1.386       .  A
C882        C899   1.416       .  A
C883        C898   1.420       .  A
C883        C891   1.390       .  A
C884        C896   1.407       .  A
C884        C892   1.388       .  A
C885        C899   1.409       .  A
C885        C893   1.386       .  A
C886        C894   1.386       .  A
C886        C897   1.414       .  A
C887        C895   1.388       .  A
C887        C898   1.417       .  A
C888        C889   1.376       .  A
C888        H900   1.083       .  S
C889        H901   1.082       .  S
C890        C891   1.371       .  A
C890        H902   1.082       .  S
C891        H903   1.080       .  S
C892        C893   1.373       .  A
C892        H904   1.082       .  S
C893        H905   1.082       .  S
C894        C895   1.371       .  A
C894        H906   1.082       .  S
C895        H907   1.082       .  S
C896       C1092   1.443       .  S
C897       C1077   1.499       .  S
C898       C1073   1.482       .  S
C899       C1090   1.450       .  S
N910        C915   1.354       .  A
N910        C914   1.351       .  A
N910        H942   1.040       .  S
N911        C918   1.353       .  A
N911        C919   1.354       .  A
N912        C917   1.356       .  A
N912        C916   1.358       .  A
N912        H943   1.038       .  S
N913        C920   1.354       .  A
N913        C921   1.353       .  A
C914        C922   1.387       .  A
C914        C930   1.414       .  A
C915        C931   1.415       .  A
C915        C923   1.388       .  A
C916        C924   1.389       .  A
C916        C933   1.423       .  A
C917        C932   1.421       .  A
C917        C925   1.388       .  A
C918        C930   1.415       .  A
C918        C926   1.385       .  A
C919        C933   1.420       .  A
C919        C927   1.389       .  A
C920        C928   1.385       .  A
C920        C931   1.415       .  A
C921        C929   1.388       .  A
C921        C932   1.420       .  A
C922        C923   1.378       .  A
C922        H934   1.082       .  S
C923        H935   1.082       .  S
C924        C925   1.375       .  A
C924        H936   1.082       .  S
C925        H937   1.082       .  S
C926        C927   1.368       .  A
C926        H938   1.082       .  S
C927        H939   1.080       .  S
C928        C929   1.373       .  A
C928        H940   1.082       .  S
C929        H941   1.082       .  S
C930       C1096   1.453       .  S
C931       C1093   1.458       .  S
C932       C1065   1.498       .  S
C933       C1069   1.495       .  S
C944        N962   1.355       .  A
C944       C1126   1.465       .  S
C944        C981   1.444       .  S
N945        N962   1.329       .  A
N945        N967   1.320       .  A
N945       Co982   2.099       .  S
C946        N971   1.345       .  A
C946        H991   1.082       .  S
C946        C984   1.462       .  S
H947        C988   1.081       .  S
C948        N972   1.341       .  A
C948        H977   1.082       .  S
C948        C952   1.464       .  S
Co949      N2127   2.069   1_445  S
Co949       N957   2.062   1_545  S
Co949      N1569   2.055   1_455  S
Co949      Cl993   2.437   1_545  S
N950        C988   1.351       .  A
N950        N957   1.317       .  A
N950       Co951   2.101       .  S
Co951       N954   2.069       .  S
Co951      Cl993   2.459       .  S
C952        N990   1.348       .  A
C952       C1074   1.465       .  S
N953        N960   1.320       .  A
N953        N983   1.321       .  A
N953      Co2146   2.080       .  S
N954        N972   1.320       .  A
N954        N990   1.319       .  A
N955        C984   1.349       .  A
N955        N965   1.323       .  A
H956        C981   1.081       .  S
N957        N978   1.319       .  A
N958        N976   1.322       .  A
N958        N963   1.325       .  A
C959        N963   1.351       .  A
C959       C1066   1.476       .  S
C959        C987   1.459       .  S
N960        C975   1.345       .  A
N960       Co982   2.095       .  S
C961        N989   1.333       .  A
C961        H995   1.081       .  S
C961        C964   1.455       .  S
C964        N985   1.352       .  A
C964       C1122   1.472       .  S
N965        N971   1.319       .  A
N966        C992   1.337       .  A
N966        N968   1.321       .  A
N967        C981   1.333       .  A
N967      Co2109   2.065   1_565  S
N968        N996   1.327       .  A
N968      Co1566   2.105       .  S
H969        C992   1.082       .  S
H970        C987   1.082       .  S
N972       Co986   2.093       .  S
N973        N985   1.328       .  A
N973        N989   1.318       .  A
C974        N978   1.342       .  A
C974       C1117   1.471       .  S
C974        C988   1.468       .  S
C975        H979   1.082       .  S
C975        C994   1.470       .  S
N976        C987   1.341       .  A
C980        N996   1.355       .  A
C980       C1070   1.471       .  S
C980        C992   1.455       .  S
Co982     Cl2153   2.462       .  S
N983        C994   1.347       .  A
C984       C1114   1.478       .  S
Co986      N2113   2.081   1_455  S
Co986      N1548   2.106   1_465  S
Co986      Cl993   2.436       .  S
N989      Co1529   2.060       .  S
Cl993     Co2142   2.463   1_455  S
C994       C1078   1.476       .  S
N997       C1002   1.361       .  A
N997       C1001   1.357       .  A
N997       H1029   1.042       .  S
N998       C1005   1.350       .  A
N998       C1006   1.352       .  A
N999       C1004   1.349       .  A
N999       C1003   1.352       .  A
N999       H1030   1.038       .  S
N1000      C1007   1.352       .  A
N1000      C1008   1.347       .  A
C1001      C1009   1.389       .  A
C1001      C1017   1.424       .  A
C1002      C1018   1.424       .  A
C1002      C1010   1.386       .  A
C1003      C1011   1.386       .  A
C1003      C1020   1.410       .  A
C1004      C1019   1.409       .  A
C1004      C1012   1.389       .  A
C1005      C1017   1.415       .  A
C1005      C1013   1.390       .  A
C1006      C1020   1.411       .  A
C1006      C1014   1.384       .  A
C1007      C1015   1.386       .  A
C1007      C1018   1.413       .  A
C1008      C1016   1.386       .  A
C1008      C1019   1.408       .  A
C1009      C1010   1.376       .  A
C1009      H1021   1.081       .  S
C1010      H1022   1.082       .  S
C1011      C1012   1.377       .  A
C1011      H1023   1.082       .  S
C1012      H1024   1.083       .  S
C1013      C1014   1.369       .  A
C1013      H1025   1.079       .  S
C1014      H1026   1.082       .  S
C1015      C1016   1.374       .  A
C1015      H1027   1.081       .  S
C1016      H1028   1.083       .  S
C1017      C1105   1.489       .  S
C1018      C1110   1.509       .  S
C1019      C1081   1.437       .  S
C1020      C1083   1.451       .  S
N1031      C1036   1.354       .  A
N1031      C1035   1.351       .  A
N1031      H1063   1.037       .  S
N1032      C1039   1.352       .  A
N1032      C1040   1.354       .  A
N1033      C1038   1.360       .  A
N1033      C1037   1.361       .  A
N1033      H1064   1.040       .  S
N1034      C1041   1.353       .  A
N1034      C1042   1.352       .  A
C1035      C1043   1.388       .  A
C1035      C1051   1.413       .  A
C1036      C1052   1.414       .  A
C1036      C1044   1.387       .  A
C1037      C1045   1.389       .  A
C1037      C1054   1.429       .  A
C1038      C1053   1.427       .  A
C1038      C1046   1.388       .  A
C1039      C1051   1.416       .  A
C1039      C1047   1.386       .  A
C1040      C1054   1.418       .  A
C1040      C1048   1.388       .  A
C1041      C1049   1.385       .  A
C1041      C1052   1.412       .  A
C1042      C1050   1.387       .  A
C1042      C1053   1.417       .  A
C1043      C1044   1.378       .  A
C1043      H1055   1.082       .  S
C1044      H1056   1.082       .  S
C1045      C1046   1.375       .  A
C1045      H1057   1.082       .  S
C1046      H1058   1.082       .  S
C1047      C1048   1.370       .  A
C1047      H1059   1.082       .  S
C1048      H1060   1.079       .  S
C1049      C1050   1.373       .  A
C1049      H1061   1.082       .  S
C1050      H1062   1.082       .  S
C1051      C1087   1.450       .  S
C1052      C1085   1.457       .  S
C1053      C1102   1.506       .  S
C1054      C1098   1.501       .  S
C1065      C1066   1.346       .  D
C1065      H1067   1.087       .  S
C1066      H1068   1.086       .  S
C1069      C1070   1.345       .  D
C1069      H1071   1.087       .  S
C1070      H1072   1.086       .  S
C1073      C1074   1.343       .  D
C1073      H1075   1.087       .  S
C1074      H1076   1.086       .  S
C1077      C1078   1.343       .  D
C1077      H1079   1.086       .  S
C1078      H1080   1.086       .  S
C1081      C1082   1.198       .  T
C1083      C1084   1.206       .  T
C1085      C1086   1.210       .  T
C1087      C1088   1.206       .  T
C1089      C1090   1.205       .  T
C1091      C1092   1.201       .  T
C1093      C1094   1.211       .  T
C1095      C1096   1.208       .  T
C1097      C1098   1.355       .  D
C1097      H1099   1.085       .  S
C1098      H1100   1.086       .  S
C1101      C1102   1.351       .  D
C1101      H1103   1.083       .  S
C1102      H1104   1.087       .  S
C1105      C1106   1.348       .  D
C1105      H1107   1.085       .  S
C1106      H1108   1.086       .  S
C1109      C1110   1.355       .  D
C1109      H1111   1.082       .  S
C1110      H1112   1.087       .  S
C1113      C1114   1.343       .  D
C1113      H1115   1.087       .  S
C1114      H1116   1.086       .  S
C1117      C1118   1.343       .  D
C1117      H1119   1.087       .  S
C1118      H1120   1.086       .  S
C1121      C1122   1.342       .  D
C1121      H1123   1.086       .  S
C1122      H1124   1.086       .  S
C1125      C1126   1.339       .  D
C1125      H1127   1.086       .  S
C1126      H1128   1.088       .  S
C1129      C1130   1.207       .  T
C1131      C1132   1.203       .  T
C1133      C1134   1.207       .  T
C1135      C1136   1.203       .  T
C1137      C1138   1.349       .  D
C1137      H1139   1.086       .  S
C1138      H1140   1.084       .  S
C1141      C1142   1.350       .  D
C1141      H1143   1.086       .  S
C1142      H1144   1.087       .  S
C1145      C1146   1.205       .  T
C1147      C1148   1.205       .  T
C1149      C1150   1.355       .  D
C1149      H1151   1.086       .  S
C1150      H1152   1.082       .  S
C1153      C1154   1.347       .  D
C1153      H1155   1.086       .  S
C1154      H1156   1.086       .  S
C1157      C1158   1.203       .  T
C1159      C1160   1.212       .  T
N1161      C1166   1.350       .  A
N1161      C1165   1.353       .  A
N1161      H1193   1.039       .  S
N1162      C1169   1.353       .  A
N1162      C1170   1.351       .  A
N1163      C1168   1.360       .  A
N1163      C1167   1.358       .  A
N1163      H1194   1.041       .  S
N1164      C1171   1.349       .  A
N1164      C1172   1.354       .  A
C1165      C1173   1.387       .  A
C1165      C1181   1.410       .  A
C1166      C1182   1.409       .  A
C1166      C1174   1.388       .  A
C1167      C1175   1.389       .  A
C1167      C1184   1.425       .  A
C1168      C1183   1.424       .  A
C1168      C1176   1.386       .  A
C1169      C1181   1.412       .  A
C1169      C1177   1.384       .  A
C1170      C1184   1.417       .  A
C1170      C1178   1.390       .  A
C1171      C1179   1.386       .  A
C1171      C1182   1.410       .  A
C1172      C1180   1.386       .  A
C1172      C1183   1.415       .  A
C1173      C1174   1.376       .  A
C1173      H1185   1.082       .  S
C1174      H1186   1.082       .  S
C1175      C1176   1.374       .  A
C1175      H1187   1.081       .  S
C1176      H1188   1.082       .  S
C1177      C1178   1.371       .  A
C1177      H1189   1.082       .  S
C1178      H1190   1.080       .  S
C1179      C1180   1.374       .  A
C1179      H1191   1.083       .  S
C1180      H1192   1.081       .  S
C1181      C1739   1.453       .  S
C1182      C1737   1.441       .  S
C1183      C1729   1.509       .  S
C1184      C1734   1.492       .  S
N1195      C1200   1.352       .  A
N1195      C1199   1.352       .  A
N1195      H1227   1.039       .  S
N1196      C1203   1.356       .  A
N1196      C1204   1.356       .  A
N1197      C1202   1.353       .  A
N1197      C1201   1.355       .  A
N1197      H1228   1.039       .  S
N1198      C1205   1.351       .  A
N1198      C1206   1.350       .  A
C1199      C1207   1.389       .  A
C1199      C1215   1.415       .  A
C1200      C1216   1.409       .  A
C1200      C1208   1.386       .  A
C1201      C1209   1.388       .  A
C1201      C1218   1.417       .  A
C1202      C1217   1.413       .  A
C1202      C1210   1.387       .  A
C1203      C1215   1.419       .  A
C1203      C1211   1.386       .  A
C1204      C1218   1.421       .  A
C1204      C1212   1.387       .  A
C1205      C1213   1.385       .  A
C1205      C1216   1.407       .  A
C1206      C1214   1.388       .  A
C1206      C1217   1.409       .  A
C1207      C1208   1.373       .  A
C1207      H1219   1.081       .  S
C1208      H1220   1.083       .  S
C1209      C1210   1.376       .  A
C1209      H1221   1.082       .  S
C1210      H1222   1.083       .  S
C1211      C1212   1.371       .  A
C1211      H1223   1.082       .  S
C1212      H1224   1.082       .  S
C1213      C1214   1.372       .  A
C1213      H1225   1.082       .  S
C1214      H1226   1.082       .  S
C1215      C1718   1.490       .  S
C1216      C1725   1.447       .  S
C1217      C1727   1.445       .  S
C1218      C1722   1.496       .  S
C1229      N1247   1.350       .  A
C1229      C1728   1.428       .  S
C1229      C1266   1.446       .  S
N1230      N1247   1.327       .  A
N1230      N1252   1.321       .  A
N1230     Co1847   2.091       .  S
C1231      N1256   1.342       .  A
C1231      H1276   1.081       .  S
C1231      C1269   1.454       .  S
H1232      C1273   1.082       .  S
C1233      N1257   1.336       .  A
C1233      H1262   1.081       .  S
C1233      C1237   1.446       .  S
Co1234     N1832   2.070       .  S
Co1234     N1822   2.079       .  S
Co1234     N1274   2.076   1_565  S
Co1234     N1250   2.073   1_565  S
Co1234    Cl1278   2.436   1_565  S
N1235      C1273   1.346       .  A
N1235      N1242   1.320       .  A
N1235     Co1816   2.093       .  S
Co1236     N1815   2.099       .  S
Co1236     N1819   2.081       .  S
Co1236     N1256   2.079   1_565  S
Co1236     N1243   2.099   1_565  S
Co1236    Cl1278   2.467   1_565  S
C1237      N1275   1.351       .  A
C1237      C1711   1.432       .  S
N1238      N1245   1.320       .  A
N1238      N1268   1.322       .  A
N1238     Co1851   2.075       .  S
N1239      N1257   1.322       .  A
N1239      N1275   1.328       .  A
N1239     Co1816   2.097       .  S
N1240      C1269   1.342       .  A
N1240      N1250   1.321       .  A
H1241      C1266   1.082       .  S
N1242      N1263   1.322       .  A
N1242     Co1814   2.076       .  S
N1243      N1261   1.320       .  A
N1243      N1248   1.329       .  A
C1244      N1248   1.352       .  A
C1244      C1710   1.436       .  S
C1244      C1272   1.447       .  S
N1245      C1260   1.343       .  A
N1245     Co1847   2.085       .  S
C1246      N1274   1.337       .  A
C1246      H1280   1.081       .  S
C1246      C1249   1.448       .  S
C1249      N1270   1.349       .  A
C1249      C1726   1.432       .  S
N1250      N1256   1.320       .  A
N1251      C1277   1.345       .  A
N1251      N1253   1.321       .  A
N1251     Co1267   2.094       .  S
N1252      C1266   1.334       .  A
N1252     Co1814   2.067       .  S
N1253      N1281   1.323       .  A
N1253     Co1271   2.077       .  S
H1254      C1277   1.081       .  S
H1255      C1272   1.082       .  S
N1257     Co1851   2.073       .  S
N1258      N1270   1.327       .  A
N1258      N1274   1.321       .  A
N1258     Co1267   2.088       .  S
C1259      N1263   1.344       .  A
C1259      C1740   1.438       .  S
C1259      C1273   1.461       .  S
C1260      H1264   1.081       .  S
C1260      C1279   1.457       .  S
N1261      C1272   1.336       .  A
N1261     Co1271   2.070       .  S
C1265      N1281   1.345       .  A
C1265      C1713   1.436       .  S
C1265      C1277   1.459       .  S
Co1267     N1810   2.097   1_545  S
Co1267     N1825   2.089   1_545  S
Co1267    Cl1278   2.466       .  S
N1268      C1279   1.344       .  A
C1269      C1738   1.425       .  S
Co1271     N1818   2.070   1_545  S
Co1271     N1837   2.079   1_545  S
Co1271    Cl1278   2.434       .  S
C1279      C1716   1.431       .  S
N1282      C1287   1.353       .  A
N1282      C1286   1.354       .  A
N1282      H1314   1.038       .  S
N1283      C1290   1.353       .  A
N1283      C1291   1.351       .  A
N1284      C1289   1.355       .  A
N1284      C1288   1.353       .  A
N1284      H1315   1.037       .  S
N1285      C1292   1.349       .  A
N1285      C1293   1.350       .  A
C1286      C1294   1.386       .  A
C1286      C1302   1.416       .  A
C1287      C1303   1.414       .  A
C1287      C1295   1.388       .  A
C1288      C1296   1.389       .  A
C1288      C1305   1.417       .  A
C1289      C1304   1.417       .  A
C1289      C1297   1.387       .  A
C1290      C1302   1.412       .  A
C1290      C1298   1.386       .  A
C1291      C1305   1.413       .  A
C1291      C1299   1.388       .  A
C1292      C1300   1.387       .  A
C1292      C1303   1.409       .  A
C1293      C1301   1.387       .  A
C1293      C1304   1.410       .  A
C1294      C1295   1.374       .  A
C1294      H1306   1.082       .  S
C1295      H1307   1.082       .  S
C1296      C1297   1.375       .  A
C1296      H1308   1.081       .  S
C1297      H1309   1.082       .  S
C1298      C1299   1.374       .  A
C1298      H1310   1.082       .  S
C1299      H1311   1.082       .  S
C1300      C1301   1.374       .  A
C1300      H1312   1.082       .  S
C1301      H1313   1.082       .  S
C1302      C1705   1.493       .  S
C1303      C1712   1.447       .  S
C1304      C1709   1.453       .  S
C1305      C1701   1.477       .  S
N1316      C1321   1.351       .  A
N1316      C1320   1.356       .  A
N1316      H1348   1.037       .  S
N1317      C1324   1.349       .  A
N1317      C1325   1.348       .  A
N1318      C1323   1.353       .  A
N1318      C1322   1.353       .  A
N1318      H1349   1.039       .  S
N1319      C1326   1.351       .  A
N1319      C1327   1.353       .  A
C1320      C1328   1.388       .  A
C1320      C1336   1.417       .  A
C1321      C1337   1.413       .  A
C1321      C1329   1.387       .  A
C1322      C1330   1.387       .  A
C1322      C1339   1.413       .  A
C1323      C1338   1.417       .  A
C1323      C1331   1.387       .  A
C1324      C1336   1.409       .  A
C1324      C1332   1.387       .  A
C1325      C1339   1.408       .  A
C1325      C1333   1.387       .  A
C1326      C1334   1.386       .  A
C1326      C1337   1.413       .  A
C1327      C1335   1.386       .  A
C1327      C1338   1.413       .  A
C1328      C1329   1.374       .  A
C1328      H1340   1.082       .  S
C1329      H1341   1.083       .  S
C1330      C1331   1.374       .  A
C1330      H1342   1.082       .  S
C1331      H1343   1.082       .  S
C1332      C1333   1.375       .  A
C1332      H1344   1.082       .  S
C1333      H1345   1.082       .  S
C1334      C1335   1.375       .  A
C1334      H1346   1.082       .  S
C1335      H1347   1.082       .  S
C1336      C1714   1.451       .  S
C1337      C1693   1.478       .  S
C1338      C1698   1.495       .  S
C1339      C1715   1.446       .  S
C1350      N1368   1.345       .  A
C1350      C1730   1.483       .  S
C1350      C1387   1.469       .  S
N1351      N1368   1.323       .  A
N1351      N1373   1.323       .  A
C1352      N1377   1.350       .  A
C1352      H1397   1.081       .  S
C1352      C1390   1.470       .  S
H1353      C1394   1.081       .  S
C1354      N1378   1.352       .  A
C1354      H1383   1.081       .  S
C1354      C1358   1.473       .  S
Co1355     N1953   2.117       .  S
Co1355     N1363   2.097       .  S
Co1355     N1975   2.072       .  S
Co1355     N1371   2.077       .  S
N1356      C1394   1.335       .  A
N1356      N1363   1.320       .  A
Co1357     N1360   2.077       .  S
Co1357     N1364   2.090       .  S
Co1357    Cl1399   2.439       .  S
C1358      N1396   1.343       .  A
C1358      C1721   1.486       .  S
N1359      N1366   1.320       .  A
N1359      N1389   1.332       .  A
N1359     Co1972   2.108       .  S
N1360      N1378   1.321       .  A
N1360      N1396   1.319       .  A
N1361      C1390   1.344       .  A
N1361      N1371   1.322       .  A
H1362      C1387   1.081       .  S
N1363      N1384   1.330       .  A
N1364      N1382   1.321       .  A
N1364      N1369   1.329       .  A
C1365      N1369   1.353       .  A
C1365      C1681   1.468       .  S
C1365      C1393   1.449       .  S
N1366      C1381   1.330       .  A
N1366     Co1388   2.067       .  S
C1367      N1395   1.329       .  A
C1367      H1401   1.081       .  S
C1367      C1370   1.447       .  S
C1370      N1391   1.359       .  A
C1370      C1686   1.475       .  S
N1371      N1377   1.321       .  A
N1372      C1398   1.349       .  A
N1372      N1374   1.323       .  A
N1372     Co1388   2.107       .  S
N1373      C1387   1.350       .  A
N1373     Co1935   2.108   1_545  S
N1374      N1402   1.320       .  A
N1374     Co1972   2.074       .  S
H1375      C1398   1.081       .  S
H1376      C1393   1.082       .  S
N1378     Co1392   2.108       .  S
N1379      N1391   1.331       .  A
N1379      N1395   1.319       .  A
C1380      N1384   1.356       .  A
C1380      C1733   1.479       .  S
C1380      C1394   1.453       .  S
C1381      H1385   1.080       .  S
C1381      C1400   1.451       .  S
N1382      C1393   1.336       .  A
N1382     Co1392   2.078       .  S
C1386      N1402   1.342       .  A
C1386      C1689   1.475       .  S
C1386      C1398   1.468       .  S
Co1388    Cl1979   2.448   1_545  S
N1389      C1400   1.360       .  A
C1390      C1677   1.480       .  S
Co1392     N1939   2.099       .  S
Co1392     N1954   2.074       .  S
Co1392    Cl1399   2.462       .  S
N1395     Co1935   2.061   1_545  S
Cl1399    Co1968   2.446       .  S
C1400      C1717   1.484       .  S
C1403      N1421   1.352       .  A
C1403      C1671   1.433       .  S
C1403      C1440   1.445       .  S
N1404      N1421   1.329       .  A
N1404      N1426   1.322       .  A
C1405      N1430   1.347       .  A
C1405      H1450   1.081       .  S
C1405      C1443   1.464       .  S
H1406      C1447   1.081       .  S
C1407      N1431   1.338       .  A
C1407      H1436   1.081       .  S
C1407      C1411   1.450       .  S
Co1408     N1448   2.073       .  S
Co1408     N1424   2.075       .  S
Co1408    Cl1452   2.435       .  S
N1409      C1447   1.345       .  A
N1409      N1416   1.320       .  A
Co1410     N1430   2.101   1_554  S
Co1410     N1417   2.084       .  S
Co1410    Cl1452   2.467   1_554  S
C1411      N1449   1.349       .  A
C1411      C1664   1.434       .  S
N1412      N1419   1.320       .  A
N1412      N1442   1.321       .  A
N1413      N1431   1.321       .  A
N1413      N1449   1.327       .  A
N1414      C1443   1.343       .  A
N1414      N1424   1.322       .  A
H1415      C1440   1.081       .  S
N1416      N1437   1.324       .  A
N1417      N1435   1.320       .  A
N1417      N1422   1.326       .  A
C1418      N1422   1.348       .  A
C1418      C1662   1.426       .  S
C1418      C1446   1.445       .  S
N1419      C1434   1.346       .  A
C1420      N1448   1.336       .  A
C1420      H1454   1.082       .  S
C1420      C1423   1.446       .  S
C1423      N1444   1.353       .  A
C1423      C1669   1.438       .  S
N1424      N1430   1.321       .  A
N1425      C1451   1.347       .  A
N1425      N1427   1.321       .  A
N1425     Co1441   2.100   1_554  S
N1426      C1440   1.335       .  A
N1427      N1455   1.322       .  A
N1427     Co1445   2.076       .  S
H1428      C1451   1.081       .  S
H1429      C1446   1.082       .  S
N1432      N1444   1.330       .  A
N1432      N1448   1.321       .  A
N1432     Co1441   2.103       .  S
C1433      N1437   1.346       .  A
C1433      C1675   1.439       .  S
C1433      C1447   1.459       .  S
C1434      H1438   1.081       .  S
C1434      C1453   1.462       .  S
N1435      C1446   1.335       .  A
N1435     Co1445   2.067       .  S
C1439      N1455   1.343       .  A
C1439      C1666   1.438       .  S
C1439      C1451   1.463       .  S
Co1441    Cl1452   2.470       .  S
N1442      C1453   1.342       .  A
C1443      C1674   1.440       .  S
Co1445    Cl1452   2.436   1_554  S
C1453      C1668   1.435       .  S
N1456      C1461   1.357       .  A
N1456      C1460   1.355       .  A
N1456      H1488   1.040       .  S
N1457      C1464   1.350       .  A
N1457      C1465   1.351       .  A
N1458      C1463   1.356       .  A
N1458      C1462   1.357       .  A
N1458      H1489   1.037       .  S
N1459      C1466   1.354       .  A
N1459      C1467   1.352       .  A
C1460      C1468   1.387       .  A
C1460      C1476   1.416       .  A
C1461      C1477   1.421       .  A
C1461      C1469   1.387       .  A
C1462      C1470   1.384       .  A
C1462      C1479   1.415       .  A
C1463      C1478   1.424       .  A
C1463      C1471   1.391       .  A
C1464      C1476   1.411       .  A
C1464      C1472   1.387       .  A
C1465      C1479   1.410       .  A
C1465      C1473   1.386       .  A
C1466      C1474   1.386       .  A
C1466      C1477   1.415       .  A
C1467      C1475   1.389       .  A
C1467      C1478   1.419       .  A
C1468      C1469   1.373       .  A
C1468      H1480   1.083       .  S
C1469      H1481   1.082       .  S
C1470      C1471   1.369       .  A
C1470      H1482   1.082       .  S
C1471      H1483   1.081       .  S
C1472      C1473   1.371       .  A
C1472      H1484   1.082       .  S
C1473      H1485   1.082       .  S
C1474      C1475   1.367       .  A
C1474      H1486   1.081       .  S
C1475      H1487   1.082       .  S
C1476      C1672   1.450       .  S
C1477      C1657   1.500       .  S
C1478      C1653   1.489       .  S
C1479      C1670   1.455       .  S
N1490      C1495   1.354       .  A
N1490      C1494   1.353       .  A
N1490      H1522   1.036       .  S
N1491      C1498   1.353       .  A
N1491      C1499   1.354       .  A
N1492      C1497   1.357       .  A
N1492      C1496   1.358       .  A
N1492      H1523   1.038       .  S
N1493      C1500   1.353       .  A
N1493      C1501   1.353       .  A
C1494      C1502   1.387       .  A
C1494      C1510   1.415       .  A
C1495      C1511   1.416       .  A
C1495      C1503   1.388       .  A
C1496      C1504   1.389       .  A
C1496      C1513   1.423       .  A
C1497      C1512   1.421       .  A
C1497      C1505   1.387       .  A
C1498      C1510   1.416       .  A
C1498      C1506   1.385       .  A
C1499      C1513   1.420       .  A
C1499      C1507   1.389       .  A
C1500      C1508   1.385       .  A
C1500      C1511   1.415       .  A
C1501      C1509   1.388       .  A
C1501      C1512   1.420       .  A
C1502      C1503   1.377       .  A
C1502      H1514   1.082       .  S
C1503      H1515   1.082       .  S
C1504      C1505   1.375       .  A
C1504      H1516   1.082       .  S
C1505      H1517   1.082       .  S
C1506      C1507   1.369       .  A
C1506      H1518   1.082       .  S
C1507      H1519   1.080       .  S
C1508      C1509   1.373       .  A
C1508      H1520   1.082       .  S
C1509      H1521   1.082       .  S
C1510      C1676   1.454       .  S
C1511      C1673   1.456       .  S
C1512      C1645   1.500       .  S
C1513      C1649   1.495       .  S
C1524      N1542   1.356       .  A
C1524      C1706   1.470       .  S
C1524      C1561   1.446       .  S
N1525      N1542   1.331       .  A
N1525      N1547   1.321       .  A
N1525     Co1562   2.100       .  S
C1526      N1551   1.346       .  A
C1526      H1571   1.082       .  S
C1526      C1564   1.462       .  S
H1527      C1568   1.081       .  S
C1528      N1552   1.342       .  A
C1528      H1557   1.082       .  S
C1528      C1532   1.463       .  S
Co1529     N1537   2.063       .  S
Co1529     N2125   2.079       .  S
Co1529    Cl1573   2.436       .  S
N1530      C1568   1.350       .  A
N1530      N1537   1.318       .  A
N1530     Co1531   2.103       .  S
Co1531     N1534   2.073       .  S
Co1531     N2131   2.092       .  S
Co1531     N2118   2.096       .  S
Co1531    Cl1573   2.462       .  S
C1532      N1570   1.350       .  A
C1532      C1654   1.470       .  S
N1533      N1540   1.319       .  A
N1533      N1563   1.321       .  A
N1534      N1552   1.319       .  A
N1534      N1570   1.320       .  A
N1535      C1564   1.346       .  A
N1535      N1545   1.319       .  A
H1536      C1561   1.081       .  S
N1537      N1558   1.319       .  A
N1538      N1556   1.321       .  A
N1538      N1543   1.326       .  A
N1538     Co2111   2.084   1_545  S
C1539      N1543   1.351       .  A
C1539      C1646   1.478       .  S
C1539      C1567   1.461       .  S
N1540      C1555   1.346       .  A
N1540     Co1562   2.096       .  S
C1541      N1569   1.332       .  A
C1541      H1575   1.081       .  S
C1541      C1544   1.452       .  S
C1544      N1565   1.353       .  A
C1544      C1702   1.471       .  S
N1545      N1551   1.318       .  A
N1545     Co2109   2.067       .  S
N1546      C1572   1.338       .  A
N1546      N1548   1.322       .  A
N1546     Co2142   2.078   1_545  S
N1547      C1561   1.334       .  A
N1548      N1576   1.327       .  A
H1549      C1572   1.082       .  S
H1550      C1567   1.082       .  S
N1551     Co2111   2.091   1_545  S
N1552     Co1566   2.091       .  S
N1553      N1565   1.329       .  A
N1553      N1569   1.318       .  A
N1553     Co2142   2.096   1_545  S
C1554      N1558   1.342       .  A
C1554      C1697   1.470       .  S
C1554      C1568   1.468       .  S
C1555      H1559   1.082       .  S
C1555      C1574   1.470       .  S
N1556      C1567   1.342       .  A
N1556     Co2146   2.094   1_545  S
C1560      N1576   1.354       .  A
C1560      C1650   1.471       .  S
C1560      C1572   1.455       .  S
Co1562     N2126   2.079       .  S
Co1562     N2133   2.102       .  S
N1563      C1574   1.346       .  A
C1564      C1694   1.474       .  S
Co1566     N2136   2.091       .  S
Co1566    Cl1573   2.433       .  S
C1574      C1658   1.473       .  S
N1577      C1582   1.358       .  A
N1577      C1581   1.356       .  A
N1577      H1609   1.040       .  S
N1578      C1585   1.350       .  A
N1578      C1586   1.351       .  A
N1579      C1584   1.350       .  A
N1579      C1583   1.352       .  A
N1579      H1610   1.039       .  S
N1580      C1587   1.351       .  A
N1580      C1588   1.348       .  A
C1581      C1589   1.389       .  A
C1581      C1597   1.422       .  A
C1582      C1598   1.422       .  A
C1582      C1590   1.387       .  A
C1583      C1591   1.386       .  A
C1583      C1600   1.409       .  A
C1584      C1599   1.409       .  A
C1584      C1592   1.388       .  A
C1585      C1597   1.413       .  A
C1585      C1593   1.389       .  A
C1586      C1600   1.410       .  A
C1586      C1594   1.385       .  A
C1587      C1595   1.387       .  A
C1587      C1598   1.413       .  A
C1588      C1596   1.385       .  A
C1588      C1599   1.407       .  A
C1589      C1590   1.376       .  A
C1589      H1601   1.082       .  S
C1590      H1602   1.082       .  S
C1591      C1592   1.377       .  A
C1591      H1603   1.082       .  S
C1592      H1604   1.082       .  S
C1593      C1594   1.368       .  A
C1593      H1605   1.080       .  S
C1594      H1606   1.082       .  S
C1595      C1596   1.373       .  A
C1595      H1607   1.081       .  S
C1596      H1608   1.083       .  S
C1597      C1685   1.486       .  S
C1598      C1690   1.503       .  S
C1599      C1661   1.441       .  S
C1600      C1663   1.448       .  S
N1611      C1616   1.353       .  A
N1611      C1615   1.350       .  A
N1611      H1643   1.039       .  S
N1612      C1619   1.351       .  A
N1612      C1620   1.354       .  A
N1613      C1618   1.357       .  A
N1613      C1617   1.359       .  A
N1613      H1644   1.042       .  S
N1614      C1621   1.351       .  A
N1614      C1622   1.349       .  A
C1615      C1623   1.388       .  A
C1615      C1631   1.411       .  A
C1616      C1632   1.412       .  A
C1616      C1624   1.386       .  A
C1617      C1625   1.388       .  A
C1617      C1634   1.424       .  A
C1618      C1633   1.422       .  A
C1618      C1626   1.388       .  A
C1619      C1631   1.413       .  A
C1619      C1627   1.386       .  A
C1620      C1634   1.416       .  A
C1620      C1628   1.386       .  A
C1621      C1629   1.386       .  A
C1621      C1632   1.410       .  A
C1622      C1630   1.387       .  A
C1622      C1633   1.413       .  A
C1623      C1624   1.379       .  A
C1623      H1635   1.082       .  S
C1624      H1636   1.082       .  S
C1625      C1626   1.376       .  A
C1625      H1637   1.082       .  S
C1626      H1638   1.082       .  S
C1627      C1628   1.375       .  A
C1627      H1639   1.082       .  S
C1628      H1640   1.081       .  S
C1629      C1630   1.374       .  A
C1629      H1641   1.082       .  S
C1630      H1642   1.082       .  S
C1631      C1667   1.449       .  S
C1632      C1665   1.452       .  S
C1633      C1682   1.498       .  S
C1634      C1678   1.509       .  S
C1645      C1646   1.347       .  D
C1645      H1647   1.087       .  S
C1646      H1648   1.086       .  S
C1649      C1650   1.344       .  D
C1649      H1651   1.087       .  S
C1650      H1652   1.086       .  S
C1653      C1654   1.344       .  D
C1653      H1655   1.087       .  S
C1654      H1656   1.086       .  S
C1657      C1658   1.341       .  D
C1657      H1659   1.086       .  S
C1658      H1660   1.086       .  S
C1661      C1662   1.200       .  T
C1663      C1664   1.205       .  T
C1665      C1666   1.208       .  T
C1667      C1668   1.206       .  T
C1669      C1670   1.208       .  T
C1671      C1672   1.205       .  T
C1673      C1674   1.209       .  T
C1675      C1676   1.208       .  T
C1677      C1678   1.353       .  D
C1677      H1679   1.082       .  S
C1678      H1680   1.087       .  S
C1681      C1682   1.346       .  D
C1681      H1683   1.084       .  S
C1682      H1684   1.087       .  S
C1685      C1686   1.350       .  D
C1685      H1687   1.085       .  S
C1686      H1688   1.086       .  S
C1689      C1690   1.351       .  D
C1689      H1691   1.083       .  S
C1690      H1692   1.087       .  S
C1693      C1694   1.343       .  D
C1693      H1695   1.087       .  S
C1694      H1696   1.086       .  S
C1697      C1698   1.342       .  D
C1697      H1699   1.087       .  S
C1698      H1700   1.086       .  S
C1701      C1702   1.343       .  D
C1701      H1703   1.086       .  S
C1702      H1704   1.086       .  S
C1705      C1706   1.341       .  D
C1705      H1707   1.086       .  S
C1706      H1708   1.087       .  S
C1709      C1710   1.207       .  T
C1711      C1712   1.204       .  T
C1713      C1714   1.206       .  T
C1715      C1716   1.204       .  T
C1717      C1718   1.352       .  D
C1717      H1719   1.086       .  S
C1718      H1720   1.083       .  S
C1721      C1722   1.353       .  D
C1721      H1723   1.086       .  S
C1722      H1724   1.087       .  S
C1725      C1726   1.204       .  T
C1727      C1728   1.202       .  T
C1729      C1730   1.352       .  D
C1729      H1731   1.087       .  S
C1730      H1732   1.083       .  S
C1733      C1734   1.348       .  D
C1733      H1735   1.086       .  S
C1734      H1736   1.085       .  S
C1737      C1738   1.200       .  T
C1739      C1740   1.208       .  T
N1741      C1746   1.352       .  A
N1741      C1745   1.353       .  A
N1741      H1773   1.040       .  S
N1742      C1749   1.353       .  A
N1742      C1750   1.351       .  A
N1743      C1748   1.360       .  A
N1743      C1747   1.358       .  A
N1743      H1774   1.041       .  S
N1744      C1751   1.349       .  A
N1744      C1752   1.353       .  A
C1745      C1753   1.387       .  A
C1745      C1761   1.412       .  A
C1746      C1762   1.411       .  A
C1746      C1754   1.387       .  A
C1747      C1755   1.390       .  A
C1747      C1764   1.426       .  A
C1748      C1763   1.426       .  A
C1748      C1756   1.387       .  A
C1749      C1761   1.413       .  A
C1749      C1757   1.384       .  A
C1750      C1764   1.417       .  A
C1750      C1758   1.390       .  A
C1751      C1759   1.385       .  A
C1751      C1762   1.409       .  A
C1752      C1760   1.387       .  A
C1752      C1763   1.415       .  A
C1753      C1754   1.378       .  A
C1753      H1765   1.082       .  S
C1754      H1766   1.082       .  S
C1755      C1756   1.376       .  A
C1755      H1767   1.082       .  S
C1756      H1768   1.082       .  S
C1757      C1758   1.371       .  A
C1757      H1769   1.082       .  S
C1758      H1770   1.079       .  S
C1759      C1760   1.375       .  A
C1759      H1771   1.082       .  S
C1760      H1772   1.081       .  S
C1761      C2319   1.455       .  S
C1762      C2317   1.448       .  S
C1763      C2309   1.510       .  S
C1764      C2314   1.493       .  S
N1775      C1780   1.352       .  A
N1775      C1779   1.354       .  A
N1775      H1807   1.040       .  S
N1776      C1783   1.353       .  A
N1776      C1784   1.353       .  A
N1777      C1782   1.353       .  A
N1777      C1781   1.354       .  A
N1777      H1808   1.040       .  S
N1778      C1785   1.351       .  A
N1778      C1786   1.350       .  A
C1779      C1787   1.389       .  A
C1779      C1795   1.416       .  A
C1780      C1796   1.409       .  A
C1780      C1788   1.385       .  A
C1781      C1789   1.387       .  A
C1781      C1798   1.416       .  A
C1782      C1797   1.411       .  A
C1782      C1790   1.386       .  A
C1783      C1795   1.416       .  A
C1783      C1791   1.386       .  A
C1784      C1798   1.416       .  A
C1784      C1792   1.387       .  A
C1785      C1793   1.386       .  A
C1785      C1796   1.408       .  A
C1786      C1794   1.387       .  A
C1786      C1797   1.409       .  A
C1787      C1788   1.374       .  A
C1787      H1799   1.081       .  S
C1788      H1800   1.082       .  S
C1789      C1790   1.375       .  A
C1789      H1801   1.082       .  S
C1790      H1802   1.082       .  S
C1791      C1792   1.372       .  A
C1791      H1803   1.082       .  S
C1792      H1804   1.082       .  S
C1793      C1794   1.374       .  A
C1793      H1805   1.082       .  S
C1794      H1806   1.082       .  S
C1795      C2298   1.490       .  S
C1796      C2305   1.446       .  S
C1797      C2307   1.448       .  S
C1798      C2302   1.491       .  S
C1809      N1827   1.351       .  A
C1809      C2308   1.433       .  S
C1809      C1846   1.446       .  S
N1810      N1827   1.328       .  A
N1810      N1832   1.321       .  A
C1811      N1836   1.346       .  A
C1811      H1856   1.081       .  S
C1811      C1849   1.461       .  S
H1812      C1853   1.081       .  S
C1813      N1837   1.337       .  A
C1813      H1842   1.081       .  S
C1813      C1817   1.449       .  S
Co1814     N1854   2.076       .  S
Co1814     N1830   2.072       .  S
Co1814    Cl1858   2.433       .  S
N1815      C1853   1.346       .  A
N1815      N1822   1.320       .  A
Co1816     N1836   2.097       .  S
Co1816     N1823   2.090       .  S
Co1816    Cl1858   2.468       .  S
C1817      N1855   1.347       .  A
C1817      C2291   1.429       .  S
N1818      N1825   1.320       .  A
N1818      N1848   1.321       .  A
N1819      N1837   1.321       .  A
N1819      N1855   1.326       .  A
N1820      C1849   1.342       .  A
N1820      N1830   1.321       .  A
H1821      C1846   1.081       .  S
N1822      N1843   1.324       .  A
N1823      N1841   1.320       .  A
N1823      N1828   1.327       .  A
C1824      N1828   1.349       .  A
C1824      C2290   1.430       .  S
C1824      C1852   1.447       .  S
N1825      C1840   1.345       .  A
C1826      N1854   1.338       .  A
C1826      H1860   1.081       .  S
C1826      C1829   1.449       .  S
C1829      N1850   1.348       .  A
C1829      C2306   1.431       .  S
N1830      N1836   1.321       .  A
N1831      C1857   1.344       .  A
N1831      N1833   1.320       .  A
N1831     Co1847   2.091       .  S
N1832      C1846   1.335       .  A
N1833      N1861   1.321       .  A
N1833     Co1851   2.073       .  S
H1834      C1857   1.081       .  S
H1835      C1852   1.082       .  S
N1838      N1850   1.326       .  A
N1838      N1854   1.320       .  A
N1838     Co1847   2.084       .  S
C1839      N1843   1.345       .  A
C1839      C2320   1.441       .  S
C1839      C1853   1.461       .  S
C1840      H1844   1.081       .  S
C1840      C1859   1.459       .  S
N1841      C1852   1.335       .  A
N1841     Co1851   2.068       .  S
C1845      N1861   1.343       .  A
C1845      C2293   1.432       .  S
C1845      C1857   1.459       .  S
Co1847    Cl1858   2.467       .  S
N1848      C1859   1.342       .  A
C1849      C2318   1.434       .  S
Co1851    Cl1858   2.434       .  S
C1859      C2296   1.431       .  S
N1862      C1867   1.353       .  A
N1862      C1866   1.352       .  A
N1862      H1894   1.038       .  S
N1863      C1870   1.352       .  A
N1863      C1871   1.351       .  A
N1864      C1869   1.353       .  A
N1864      C1868   1.352       .  A
N1864      H1895   1.037       .  S
N1865      C1872   1.348       .  A
N1865      C1873   1.348       .  A
C1866      C1874   1.386       .  A
C1866      C1882   1.414       .  A
C1867      C1883   1.414       .  A
C1867      C1875   1.389       .  A
C1868      C1876   1.386       .  A
C1868      C1885   1.411       .  A
C1869      C1884   1.416       .  A
C1869      C1877   1.389       .  A
C1870      C1882   1.410       .  A
C1870      C1878   1.386       .  A
C1871      C1885   1.410       .  A
C1871      C1879   1.386       .  A
C1872      C1880   1.387       .  A
C1872      C1883   1.408       .  A
C1873      C1881   1.387       .  A
C1873      C1884   1.409       .  A
C1874      C1875   1.373       .  A
C1874      H1886   1.082       .  S
C1875      H1887   1.082       .  S
C1876      C1877   1.374       .  A
C1876      H1888   1.082       .  S
C1877      H1889   1.082       .  S
C1878      C1879   1.372       .  A
C1878      H1890   1.082       .  S
C1879      H1891   1.082       .  S
C1880      C1881   1.374       .  A
C1880      H1892   1.083       .  S
C1881      H1893   1.082       .  S
C1882      C2285   1.487       .  S
C1883      C2292   1.445       .  S
C1884      C2289   1.446       .  S
C1885      C2281   1.477       .  S
N1896      C1901   1.351       .  A
N1896      C1900   1.355       .  A
N1896      H1928   1.036       .  S
N1897      C1904   1.348       .  A
N1897      C1905   1.349       .  A
N1898      C1903   1.353       .  A
N1898      C1902   1.354       .  A
N1898      H1929   1.039       .  S
N1899      C1906   1.353       .  A
N1899      C1907   1.353       .  A
C1900      C1908   1.388       .  A
C1900      C1916   1.417       .  A
C1901      C1917   1.413       .  A
C1901      C1909   1.387       .  A
C1902      C1910   1.387       .  A
C1902      C1919   1.413       .  A
C1903      C1918   1.418       .  A
C1903      C1911   1.388       .  A
C1904      C1916   1.409       .  A
C1904      C1912   1.387       .  A
C1905      C1919   1.407       .  A
C1905      C1913   1.386       .  A
C1906      C1914   1.386       .  A
C1906      C1917   1.414       .  A
C1907      C1915   1.386       .  A
C1907      C1918   1.415       .  A
C1908      C1909   1.374       .  A
C1908      H1920   1.082       .  S
C1909      H1921   1.083       .  S
C1910      C1911   1.374       .  A
C1910      H1922   1.082       .  S
C1911      H1923   1.082       .  S
C1912      C1913   1.373       .  A
C1912      H1924   1.082       .  S
C1913      H1925   1.082       .  S
C1914      C1915   1.375       .  A
C1914      H1926   1.082       .  S
C1915      H1927   1.082       .  S
C1916      C2294   1.448       .  S
C1917      C2273   1.482       .  S
C1918      C2278   1.495       .  S
C1919      C2295   1.447       .  S
C1930      N1948   1.342       .  A
C1930      C2310   1.482       .  S
C1930      C1967   1.473       .  S
N1931      N1948   1.321       .  A
N1931      N1953   1.322       .  A
C1932      N1957   1.351       .  A
C1932      H1977   1.081       .  S
C1932      C1970   1.472       .  S
H1933      C1974   1.081       .  S
C1934      N1958   1.350       .  A
C1934      H1963   1.081       .  S
C1934      C1938   1.470       .  S
Co1935     N1943   2.098       .  S
Co1935     N1951   2.072       .  S
N1936      C1974   1.333       .  A
N1936      N1943   1.319       .  A
Co1937     N1940   2.077       .  S
Co1937     N1944   2.103       .  S
Co1937    Cl1979   2.444       .  S
C1938      N1976   1.343       .  A
C1938      C2301   1.482       .  S
N1939      N1946   1.321       .  A
N1939      N1969   1.331       .  A
N1940      N1958   1.321       .  A
N1940      N1976   1.319       .  A
N1941      C1970   1.342       .  A
N1941      N1951   1.319       .  A
H1942      C1967   1.081       .  S
N1943      N1964   1.330       .  A
N1944      N1962   1.322       .  A
N1944      N1949   1.331       .  A
C1945      N1949   1.356       .  A
C1945      C2261   1.477       .  S
C1945      C1973   1.451       .  S
N1946      C1961   1.332       .  A
N1946     Co1968   2.075       .  S
C1947      N1975   1.333       .  A
C1947      H1981   1.081       .  S
C1947      C1950   1.451       .  S
C1950      N1971   1.355       .  A
C1950      C2266   1.473       .  S
N1951      N1957   1.321       .  A
N1952      C1978   1.351       .  A
N1952      N1954   1.322       .  A
N1952     Co1968   2.113       .  S
N1953      C1967   1.352       .  A
N1954      N1982   1.321       .  A
H1955      C1978   1.081       .  S
H1956      C1973   1.082       .  S
N1958     Co1972   2.100   1_565  S
N1959      N1971   1.329       .  A
N1959      N1975   1.320       .  A
C1960      N1964   1.357       .  A
C1960      C2313   1.479       .  S
C1960      C1974   1.451       .  S
C1961      H1965   1.081       .  S
C1961      C1980   1.454       .  S
N1962      C1973   1.338       .  A
N1962     Co1972   2.086   1_565  S
C1966      N1982   1.342       .  A
C1966      C2269   1.479       .  S
C1966      C1978   1.471       .  S
N1969      C1980   1.357       .  A
C1970      C2257   1.482       .  S
Co1972    Cl1979   2.460   1_545  S
C1980      C2297   1.482       .  S
C1983      N2001   1.352       .  A
C1983      C2251   1.434       .  S
C1983      C2020   1.445       .  S
N1984      N2001   1.328       .  A
N1984      N2006   1.321       .  A
C1985      N2010   1.347       .  A
C1985      H2030   1.081       .  S
C1985      C2023   1.464       .  S
H1986      C2027   1.081       .  S
C1987      N2011   1.338       .  A
C1987      H2016   1.082       .  S
C1987      C1991   1.450       .  S
Co1988     N2028   2.084       .  S
Co1988     N2004   2.067       .  S
Co1988    Cl2032   2.438       .  S
N1989      C2027   1.342       .  A
N1989      N1996   1.320       .  A
Co1990     N2010   2.101   1_554  S
Co1990     N1997   2.083       .  S
Co1990    Cl2032   2.465   1_554  S
C1991      N2029   1.351       .  A
C1991      C2244   1.438       .  S
N1992      N1999   1.320       .  A
N1992      N2022   1.322       .  A
N1993      N2011   1.321       .  A
N1993      N2029   1.328       .  A
N1994      C2023   1.342       .  A
N1994      N2004   1.321       .  A
H1995      C2020   1.081       .  S
N1996      N2017   1.323       .  A
N1997      N2015   1.321       .  A
N1997      N2002   1.326       .  A
C1998      N2002   1.348       .  A
C1998      C2242   1.425       .  S
C1998      C2026   1.445       .  S
N1999      C2014   1.347       .  A
C2000      N2028   1.339       .  A
C2000      H2034   1.081       .  S
C2000      C2003   1.451       .  S
C2003      N2024   1.349       .  A
C2003      C2249   1.436       .  S
N2004      N2010   1.320       .  A
N2005      C2031   1.348       .  A
N2005      N2007   1.320       .  A
N2005     Co2021   2.100   1_554  S
N2006      C2020   1.336       .  A
N2007      N2035   1.324       .  A
N2007     Co2025   2.082       .  S
H2008      C2031   1.081       .  S
H2009      C2026   1.081       .  S
N2012      N2024   1.327       .  A
N2012      N2028   1.321       .  A
N2012     Co2021   2.090       .  S
C2013      N2017   1.345       .  A
C2013      C2255   1.431       .  S
C2013      C2027   1.455       .  S
C2014      H2018   1.081       .  S
C2014      C2033   1.463       .  S
N2015      C2026   1.335       .  A
N2015     Co2025   2.069       .  S
C2019      N2035   1.345       .  A
C2019      C2246   1.443       .  S
C2019      C2031   1.463       .  S
Co2021    Cl2032   2.466       .  S
N2022      C2033   1.344       .  A
C2023      C2254   1.438       .  S
Co2025    Cl2032   2.438   1_554  S
C2033      C2248   1.438       .  S
N2036      C2041   1.356       .  A
N2036      C2040   1.353       .  A
N2036      H2068   1.041       .  S
N2037      C2044   1.349       .  A
N2037      C2045   1.350       .  A
N2038      C2043   1.354       .  A
N2038      C2042   1.355       .  A
N2038      H2069   1.035       .  S
N2039      C2046   1.353       .  A
N2039      C2047   1.351       .  A
C2040      C2048   1.386       .  A
C2040      C2056   1.413       .  A
C2041      C2057   1.419       .  A
C2041      C2049   1.387       .  A
C2042      C2050   1.387       .  A
C2042      C2059   1.417       .  A
C2043      C2058   1.420       .  A
C2043      C2051   1.389       .  A
C2044      C2056   1.409       .  A
C2044      C2052   1.387       .  A
C2045      C2059   1.411       .  A
C2045      C2053   1.387       .  A
C2046      C2054   1.386       .  A
C2046      C2057   1.414       .  A
C2047      C2055   1.388       .  A
C2047      C2058   1.415       .  A
C2048      C2049   1.375       .  A
C2048      H2060   1.082       .  S
C2049      H2061   1.082       .  S
C2050      C2051   1.372       .  A
C2050      H2062   1.082       .  S
C2051      H2063   1.080       .  S
C2052      C2053   1.374       .  A
C2052      H2064   1.082       .  S
C2053      H2065   1.082       .  S
C2054      C2055   1.371       .  A
C2054      H2066   1.082       .  S
C2055      H2067   1.082       .  S
C2056      C2252   1.449       .  S
C2057      C2237   1.500       .  S
C2058      C2233   1.482       .  S
C2059      C2250   1.452       .  S
N2070      C2075   1.353       .  A
N2070      C2074   1.351       .  A
N2070      H2102   1.038       .  S
N2071      C2078   1.352       .  A
N2071      C2079   1.353       .  A
N2072      C2077   1.357       .  A
N2072      C2076   1.359       .  A
N2072      H2103   1.040       .  S
N2073      C2080   1.354       .  A
N2073      C2081   1.354       .  A
C2074      C2082   1.387       .  A
C2074      C2090   1.411       .  A
C2075      C2091   1.413       .  A
C2075      C2083   1.388       .  A
C2076      C2084   1.389       .  A
C2076      C2093   1.424       .  A
C2077      C2092   1.421       .  A
C2077      C2085   1.386       .  A
C2078      C2090   1.413       .  A
C2078      C2086   1.385       .  A
C2079      C2093   1.418       .  A
C2079      C2087   1.389       .  A
C2080      C2088   1.385       .  A
C2080      C2091   1.414       .  A
C2081      C2089   1.388       .  A
C2081      C2092   1.421       .  A
C2082      C2083   1.377       .  A
C2082      H2094   1.083       .  S
C2083      H2095   1.082       .  S
C2084      C2085   1.377       .  A
C2084      H2096   1.082       .  S
C2085      H2097   1.082       .  S
C2086      C2087   1.369       .  A
C2086      H2098   1.082       .  S
C2087      H2099   1.079       .  S
C2088      C2089   1.374       .  A
C2088      H2100   1.083       .  S
C2089      H2101   1.081       .  S
C2090      C2256   1.447       .  S
C2091      C2253   1.453       .  S
C2092      C2225   1.505       .  S
C2093      C2229   1.498       .  S
C2104      N2122   1.354       .  A
C2104      C2286   1.465       .  S
C2104      C2141   1.445       .  S
N2105      N2122   1.329       .  A
N2105      N2127   1.321       .  A
N2105     Co2142   2.099       .  S
C2106      N2131   1.345       .  A
C2106      H2151   1.081       .  S
C2106      C2144   1.462       .  S
H2107      C2148   1.081       .  S
C2108      N2132   1.340       .  A
C2108      H2137   1.082       .  S
C2108      C2112   1.462       .  S
Co2109     N2117   2.067   1_545  S
Co2109    Cl2153   2.437   1_545  S
N2110      C2148   1.350       .  A
N2110      N2117   1.318       .  A
N2110     Co2111   2.101       .  S
Co2111     N2114   2.075       .  S
Co2111    Cl2153   2.460       .  S
C2112      N2150   1.350       .  A
C2112      C2234   1.465       .  S
N2113      N2120   1.320       .  A
N2113      N2143   1.322       .  A
N2114      N2132   1.319       .  A
N2114      N2150   1.321       .  A
N2115      C2144   1.348       .  A
N2115      N2125   1.322       .  A
H2116      C2141   1.081       .  S
N2117      N2138   1.320       .  A
N2118      N2136   1.321       .  A
N2118      N2123   1.328       .  A
C2119      N2123   1.353       .  A
C2119      C2226   1.484       .  S
C2119      C2147   1.460       .  S
N2120      C2135   1.345       .  A
N2120     Co2142   2.091       .  S
C2121      N2149   1.333       .  A
C2121      H2155   1.081       .  S
C2121      C2124   1.455       .  S
C2124      N2145   1.353       .  A
C2124      C2282   1.475       .  S
N2125      N2131   1.319       .  A
N2126      C2152   1.339       .  A
N2126      N2128   1.322       .  A
N2127      C2141   1.334       .  A
N2128      N2156   1.329       .  A
H2129      C2152   1.082       .  S
H2130      C2147   1.082       .  S
N2132     Co2146   2.087       .  S
N2133      N2145   1.329       .  A
N2133      N2149   1.318       .  A
C2134      N2138   1.342       .  A
C2134      C2277   1.471       .  S
C2134      C2148   1.468       .  S
C2135      H2139   1.082       .  S
C2135      C2154   1.468       .  S
N2136      C2147   1.342       .  A
C2140      N2156   1.356       .  A
C2140      C2230   1.475       .  S
C2140      C2152   1.453       .  S
N2143      C2154   1.347       .  A
C2144      C2274   1.477       .  S
Co2146    Cl2153   2.435       .  S
C2154      C2238   1.477       .  S
N2157      C2162   1.359       .  A
N2157      C2161   1.356       .  A
N2157      H2189   1.041       .  S
N2158      C2165   1.350       .  A
N2158      C2166   1.352       .  A
N2159      C2164   1.350       .  A
N2159      C2163   1.352       .  A
N2159      H2190   1.040       .  S
N2160      C2167   1.351       .  A
N2160      C2168   1.347       .  A
C2161      C2169   1.389       .  A
C2161      C2177   1.422       .  A
C2162      C2178   1.423       .  A
C2162      C2170   1.387       .  A
C2163      C2171   1.386       .  A
C2163      C2180   1.409       .  A
C2164      C2179   1.409       .  A
C2164      C2172   1.388       .  A
C2165      C2177   1.415       .  A
C2165      C2173   1.390       .  A
C2166      C2180   1.410       .  A
C2166      C2174   1.384       .  A
C2167      C2175   1.386       .  A
C2167      C2178   1.412       .  A
C2168      C2176   1.386       .  A
C2168      C2179   1.407       .  A
C2169      C2170   1.376       .  A
C2169      H2181   1.082       .  S
C2170      H2182   1.082       .  S
C2171      C2172   1.378       .  A
C2171      H2183   1.082       .  S
C2172      H2184   1.082       .  S
C2173      C2174   1.371       .  A
C2173      H2185   1.080       .  S
C2174      H2186   1.082       .  S
C2175      C2176   1.375       .  A
C2175      H2187   1.081       .  S
C2176      H2188   1.083       .  S
C2177      C2265   1.486       .  S
C2178      C2270   1.505       .  S
C2179      C2241   1.439       .  S
C2180      C2243   1.452       .  S
N2191      C2196   1.354       .  A
N2191      C2195   1.353       .  A
N2191      H2223   1.039       .  S
N2192      C2199   1.353       .  A
N2192      C2200   1.353       .  A
N2193      C2198   1.359       .  A
N2193      C2197   1.360       .  A
N2193      H2224   1.041       .  S
N2194      C2201   1.352       .  A
N2194      C2202   1.353       .  A
C2195      C2203   1.387       .  A
C2195      C2211   1.413       .  A
C2196      C2212   1.414       .  A
C2196      C2204   1.387       .  A
C2197      C2205   1.389       .  A
C2197      C2214   1.426       .  A
C2198      C2213   1.424       .  A
C2198      C2206   1.387       .  A
C2199      C2211   1.415       .  A
C2199      C2207   1.385       .  A
C2200      C2214   1.417       .  A
C2200      C2208   1.388       .  A
C2201      C2209   1.386       .  A
C2201      C2212   1.413       .  A
C2202      C2210   1.387       .  A
C2202      C2213   1.416       .  A
C2203      C2204   1.378       .  A
C2203      H2215   1.082       .  S
C2204      H2216   1.082       .  S
C2205      C2206   1.374       .  A
C2205      H2217   1.081       .  S
C2206      H2218   1.082       .  S
C2207      C2208   1.371       .  A
C2207      H2219   1.082       .  S
C2208      H2220   1.079       .  S
C2209      C2210   1.375       .  A
C2209      H2221   1.082       .  S
C2210      H2222   1.082       .  S
C2211      C2247   1.454       .  S
C2212      C2245   1.457       .  S
C2213      C2262   1.505       .  S
C2214      C2258   1.497       .  S
C2225      C2226   1.348       .  D
C2225      H2227   1.087       .  S
C2226      H2228   1.085       .  S
C2229      C2230   1.346       .  D
C2229      H2231   1.087       .  S
C2230      H2232   1.086       .  S
C2233      C2234   1.342       .  D
C2233      H2235   1.088       .  S
C2234      H2236   1.086       .  S
C2237      C2238   1.344       .  D
C2237      H2239   1.086       .  S
C2238      H2240   1.086       .  S
C2241      C2242   1.200       .  T
C2243      C2244   1.207       .  T
C2245      C2246   1.210       .  T
C2247      C2248   1.208       .  T
C2249      C2250   1.206       .  T
C2251      C2252   1.205       .  T
C2253      C2254   1.208       .  T
C2255      C2256   1.204       .  T
C2257      C2258   1.352       .  D
C2257      H2259   1.085       .  S
C2258      H2260   1.086       .  S
C2261      C2262   1.349       .  D
C2261      H2263   1.083       .  S
C2262      H2264   1.087       .  S
C2265      C2266   1.347       .  D
C2265      H2267   1.085       .  S
C2266      H2268   1.086       .  S
C2269      C2270   1.353       .  D
C2269      H2271   1.082       .  S
C2270      H2272   1.087       .  S
C2273      C2274   1.343       .  D
C2273      H2275   1.087       .  S
C2274      H2276   1.086       .  S
C2277      C2278   1.342       .  D
C2277      H2279   1.087       .  S
C2278      H2280   1.086       .  S
C2281      C2282   1.342       .  D
C2281      H2283   1.085       .  S
C2282      H2284   1.086       .  S
C2285      C2286   1.339       .  D
C2285      H2287   1.086       .  S
C2286      H2288   1.088       .  S
C2289      C2290   1.203       .  T
C2291      C2292   1.202       .  T
C2293      C2294   1.204       .  T
C2295      C2296   1.204       .  T
C2297      C2298   1.349       .  D
C2297      H2299   1.086       .  S
C2298      H2300   1.084       .  S
C2301      C2302   1.350       .  D
C2301      H2303   1.086       .  S
C2302      H2304   1.087       .  S
C2305      C2306   1.204       .  T
C2307      C2308   1.205       .  T
C2309      C2310   1.356       .  D
C2309      H2311   1.087       .  S
C2310      H2312   1.082       .  S
C2313      C2314   1.350       .  D
C2313      H2315   1.086       .  S
C2314      H2316   1.085       .  S
C2317      C2318   1.205       .  T
C2319      C2320   1.209       .  T
