geometry optimzed in LAMMPS
_audit_creation_date              2020-11-30 
_audit_creation_method            'lammps2cif' 
_symmetry_space_group_name_H-M    'P1' 
_symmetry_Int_Tables_number       1 
_symmetry_cell_setting            triclinic 
loop_ 
_symmetry_equiv_pos_as_xyz 
  x,y,z 
_cell_length_a                    46.90875791 
_cell_length_b                    46.69175530968538 
_cell_length_c                    19.803404859321383 
_cell_angle_alpha                 88.37120511047624 
_cell_angle_beta                  90.5953753260214 
_cell_angle_gamma                 114.23856829754875 
loop_ 
_atom_site_label 
_atom_site_type_symbol 
_atom_site_fract_x 
_atom_site_fract_y 
_atom_site_fract_z 
_atom_site_charge 
C1          C  0.31509765  0.17179198  0.03270579     0.29600
C2          C  0.31757231  0.17107762  0.37665402     0.29600
C3          C  0.31992720  0.14512838  0.99515545    -0.06600
C4          C  0.28536558  0.16876776  0.98979127    -0.07400
C5          C  0.33796546  0.20180249  0.99076066    -0.07300
C6          C  0.32084002  0.14450379  0.42155053    -0.06600
C7          C  0.28740095  0.17043017  0.41521360    -0.07400
C8          C  0.34325595  0.19907436  0.41703732    -0.07300
C9          C  0.33898679  0.12869163  0.41186852    -0.32700
N10         N  0.33957795  0.11181031  0.46737346     0.13800
C11         C  0.32994206  0.12296614  0.01926994    -0.32700
H12         H  0.32890562  0.11412684  0.07052780     0.15800
C13         C  0.25748896  0.16495037  0.39417077    -0.31600
N14         N  0.23769779  0.15958180  0.94875617     0.12600
C15         C  0.25486408  0.16285036  0.00621515    -0.31600
C16         C  0.36090020  0.22978945  0.39566893    -0.31900
N17         N  0.35603425  0.25111273  0.94459045     0.13100
H18         H  0.37156216  0.23691297  0.34699629     0.15700
C19         C  0.34226881  0.23285069  0.99881134    -0.31900
H20         H  0.33161350  0.24079444  0.03718542     0.15700
H21         H  0.24534048  0.15900293  0.05677797     0.15700
H22         H  0.35843339  0.13708245  0.37835155     0.15800
H23         H  0.24962476  0.16211875  0.34238514     0.15700
C24         C  0.31750090  0.16911786  0.28214547     0.29600
C25         C  0.31859083  0.17113291  0.12618459     0.29600
C26         C  0.34437185  0.16342013  0.24112774    -0.06600
C27         C  0.29019525  0.14435109  0.24079433    -0.07400
C28         C  0.31783000  0.19883549  0.24041151    -0.07300
C29         C  0.34624693  0.16691228  0.16656118    -0.06600
C30         C  0.29113259  0.14534940  0.16688611    -0.07400
C31         C  0.32120661  0.20020626  0.16650440    -0.07300
C32         C  0.36754411  0.15530657  0.14557149    -0.32700
N33         N  0.37347467  0.13916989  0.19745106     0.13800
C34         C  0.35686841  0.14105062  0.25125506    -0.32700
H35         H  0.34781264  0.12147235  0.28597648     0.15800
C36         C  0.26444009  0.12142448  0.14598991    -0.31600
N37         N  0.24677677  0.10718421  0.20061500     0.12600
C38         C  0.26218392  0.12018834  0.25804182    -0.31600
C39         C  0.34324642  0.23008966  0.15466519    -0.31900
N40         N  0.34625832  0.24816842  0.20764114     0.13100
H41         H  0.36090807  0.23687525  0.11594471     0.15700
C42         C  0.32996400  0.22980792  0.25961104    -0.31900
H43         H  0.32771526  0.23841626  0.30817681     0.15700
H44         H  0.25240629  0.11415709  0.30833679     0.15700
H45         H  0.37565444  0.15570839  0.09459093     0.15800
H46         H  0.25688103  0.11636552  0.09424020     0.15700
N47         N  0.05689169  0.07338920  0.43857600    -0.06500
N48         N  0.08109246  0.10089070  0.44385917    -0.58700
N49         N  0.05843718  0.07257962  0.28964881    -0.06200
N50         N  0.08402300  0.09868064  0.27889111    -0.60800
N51         N  0.03410981  0.07961036  0.29162809    -0.05800
N52         N  0.04200367  0.10936329  0.27834541    -0.58600
N53         N  0.06685575  0.05095300  0.44087276    -0.05500
N54         N  0.09667109  0.06207651  0.45432445    -0.61100
C55         C  0.10554028  0.09314640  0.45643700     0.95600
C56         C  0.07300074  0.12128016  0.26951805     0.95400
N57         N  0.52146257  0.45736818  0.28537673    -0.06700
N58         N  0.52677075  0.43572442  0.25377690    -0.59200
N59         N  0.05800145  0.48172364  0.38976460    -0.04900
N60         N  0.08471383  0.47917749  0.38937879    -0.60500
N61         N  0.03436787  0.45368032  0.38933623    -0.06800
N62         N  0.04515693  0.43179193  0.38627966    -0.59500
N63         N  0.04586415  0.98540711  0.27673810    -0.04500
N64         N  0.06792070  0.98169349  0.24246953    -0.60600
Mn65       Mn  0.05027342  0.02439355  0.34756419     1.18400
C66         C  0.55086341  0.95525871  0.21196352     0.97700
C67         C  0.07652789  0.44812654  0.38563732     0.98400
N68         N  0.45989314  0.05724626  0.35292977    -0.06800
N69         N  0.45011964  0.07983865  0.35759667    -0.63100
N70         N  0.44566237  0.51888589  0.46813079    -0.05600
N71         N  0.42083388  0.52423376  0.99823690    -0.63800
N72         N  0.96911311  0.04750769  0.46084716    -0.06300
N73         N  0.96174398  0.06707262  0.99205696    -0.63400
N74         N  0.43576868  0.02952570  0.35117265    -0.05200
N75         N  0.40968094  0.03345204  0.35496338    -0.64000
Mn76       Mn  0.00771915  0.05996280  0.38509239     1.10700
C77         C  0.41875625  0.06463260  0.36092817     0.98900
C78         C  0.43662052  0.54957257  0.03559174     0.99000
N79         N  0.45777769  0.42956923  0.44939036    -0.06300
N80         N  0.45082930  0.39984696  0.46138423    -0.61700
N81         N  0.42677181  0.45946459  0.30643324    -0.05600
N82         N  0.39782825  0.45194715  0.29000476    -0.58400
N83         N  0.43363387  0.43503746  0.30772077    -0.06900
N84         N  0.40715725  0.40929643  0.30187231    -0.61200
N85         N  0.43278868  0.43563655  0.44573143    -0.05900
N86         N  0.40792007  0.40787915  0.45020743    -0.58400
Mn87       Mn  0.48363465  0.44784597  0.35885113     1.20200
Mn88       Mn  0.43665986  0.48404244  0.39482329     1.10100
Cl89       Cl  0.49316494  0.00470971  0.37182914    -0.86400
C90         C  0.41981167  0.38583232  0.46206440     0.95900
C91         C  0.38515185  0.42077523  0.28845834     0.95700
N92         N  0.07410754  0.05512171  0.16873495    -0.06500
N93         N  0.09810462  0.05588788  0.20415128    -0.58700
N94         N  0.03934765  0.08348937  0.06385787    -0.06200
N95         N  0.04017550  0.10792122  0.02860278    -0.60800
N96         N  0.03632823  0.08716707  0.12810155    -0.05800
N97         N  0.03634256  0.11472136  0.13831165    -0.58600
N98         N  0.07813199  0.05171964  0.10456761    -0.05500
N99         N  0.10532869  0.05081337  0.09444144    -0.61100
C100        C  0.11740345  0.05354570  0.15702357     0.95600
C101        C  0.04000150  0.12793734  0.07591150     0.95400
N102        N  0.46201710  0.50129510  0.08797969    -0.06700
N103        N  0.43833197  0.50735009  0.60287097    -0.59200
N104        N  0.03768089  0.48818060  0.01112157    -0.04900
N105        N  0.06271076  0.48200839  0.02011688    -0.60500
N106        N  0.01223565  0.46165769  0.01159126    -0.06800
N107        N  0.01969787  0.43738569  0.02006554    -0.59500
N108        N  0.98732621  0.02849592  0.08330852    -0.04500
N109        N  0.97928870  0.05150957  0.59547188    -0.60600
Mn110      Mn  0.03471001  0.03506360  0.03511340     1.18400
C111        C  0.44771969  0.03904402  0.59365965     0.97700
C112        C  0.05118648  0.45019513  0.02500773     0.98400
N113        N  0.47587351  0.04384492  0.23046947    -0.06800
N114        N  0.46926478  0.06872433  0.22261253    -0.63100
N115        N  0.49688108  0.47142890  0.16257557    -0.05600
N116        N  0.50537297  0.44824520  0.15153404    -0.63800
N117        N  0.02173281  0.99881988  0.15413444    -0.06300
N118        N  0.04666275  0.99376579  0.14038919    -0.63400
N119        N  0.44988530  0.01781701  0.22960210    -0.05200
N120        N  0.42542105  0.02504531  0.22180676    -0.64000
Mn121      Mn  0.02414173  0.04445354  0.20010896     1.10700
C122        C  0.43771673  0.05693379  0.21837474     0.98900
C123        C  0.53702852  0.46174619  0.15320392     0.99000
N124        N  0.44755234  0.41317897  0.11672150    -0.06300
N125        N  0.44368655  0.38421811  0.10666829    -0.61700
N126        N  0.40590400  0.44739727  0.13717483    -0.05600
N127        N  0.37591882  0.43621084  0.15062479    -0.58400
N128        N  0.41047831  0.44475489  0.07314673    -0.06900
N129        N  0.38397361  0.43321142  0.04076587    -0.61200
N130        N  0.44431710  0.41730362  0.18068001    -0.05900
N131        N  0.43958815  0.39169582  0.21618334    -0.58400
Mn132      Mn  0.46056339  0.45602051  0.04369058     1.20200
Mn133      Mn  0.44938785  0.46649247  0.20615009     1.10100
Cl134      Cl  0.49291055  0.00185783  0.12059856    -0.86400
C135        C  0.43808983  0.37089321  0.16925273     0.95900
C136        C  0.36271026  0.42743684  0.08977174     0.95700
C137        C  0.16930514  0.33482752  0.21968926     0.29600
C138        C  0.17116477  0.33434319  0.37569568     0.29600
C139        C  0.16254856  0.35989966  0.26006284    -0.06600
C140        C  0.14628044  0.30538654  0.26348061    -0.07400
C141        C  0.20128382  0.34121193  0.25939865    -0.07300
C142        C  0.16346370  0.35943715  0.33423960    -0.06600
C143        C  0.15014114  0.30411315  0.33619658    -0.07400
C144        C  0.20195337  0.34099019  0.33409668    -0.07300
C145        C  0.16864191  0.38933697  0.35163313    -0.32700
N146        N  0.16533217  0.40573490  0.29737980     0.13800
C147        C  0.16533457  0.38964642  0.24186664    -0.32700
H148        H  0.16849925  0.40011218  0.19181861     0.15800
C149        C  0.14314189  0.27254893  0.34928786    -0.31600
N150        N  0.12709863  0.25486477  0.29733851     0.12600
C151        C  0.12708900  0.27494544  0.24716890    -0.31600
C152        C  0.23277869  0.35871641  0.35103218    -0.31900
N153        N  0.25090568  0.36654711  0.29575386     0.13100
H154        H  0.24101033  0.36936622  0.39707439     0.15700
C155        C  0.23226024  0.35979877  0.24117170    -0.32500
H156        H  0.24073195  0.37100189  0.19274000     0.15700
H157        H  0.11158920  0.26794042  0.20470428     0.15700
H158        H  0.17381061  0.39890576  0.40146687     0.15800
H159        H  0.15160972  0.26353366  0.39166341     0.15700
C160        C  0.16848324  0.33395144  0.46948080     0.29600
C161        C  0.16832286  0.33381179  0.12563441     0.29600
C162        C  0.15521252  0.35510167  0.50882589    -0.06600
C163        C  0.14830215  0.30331132  0.51195426    -0.07400
C164        C  0.19959920  0.34196161  0.51118080    -0.07300
C165        C  0.15596559  0.35575456  0.08338358    -0.06600
C166        C  0.14952469  0.30314121  0.08544045    -0.07400
C167        C  0.19897825  0.34114217  0.08532500    -0.07300
C168        C  0.13377161  0.36677198  0.10075968    -0.32700
N169        N  0.12142085  0.37443758  0.54472740     0.13800
C170        C  0.13325257  0.36668052  0.48966369    -0.32700
H171        H  0.12454891  0.36753031  0.43931891     0.15800
C172        C  0.13894373  0.27186041  0.10102358    -0.31600
N173        N  0.12400812  0.25469865  0.55061352     0.12600
C174        C  0.12727120  0.27384304  0.49653214    -0.31600
C175        C  0.22233841  0.33235233  0.10456075    -0.31900
N176        N  0.24128244  0.33458719  0.55228571     0.13100
H177        H  0.22316363  0.32122042  0.15229538     0.15700
C178        C  0.22423901  0.33403764  0.49682285    -0.31900
H179        H  0.22744254  0.32385306  0.45089169     0.15700
H180        H  0.11322911  0.26714813  0.45198040     0.15700
H181        H  0.12373711  0.36546590  0.15014682     0.15800
H182        H  0.14526287  0.26116389  0.14386938     0.15700
C183        C  0.07533827  0.21451254  0.09912618    -0.09600
C184        C  0.10080815  0.22346901  0.05480269     0.06600
C185        C  0.10682789  0.20037568  0.51755106    -0.03400
C186        C  0.08494196  0.17006477  0.02295584    -0.07800
C187        C  0.05920579  0.16097441  0.06670062     0.05700
C188        C  0.05491247  0.18312608  0.10677886    -0.02800
Br189      Br  0.02226759  0.17168256  0.17313046    -0.02500
H190        H  0.07177560  0.23197062  0.12846074     0.09600
H191        H  0.08877998  0.15272964  0.49148851     0.07700
Br192      Br  0.14309835  0.20999149  0.46305747    -0.03000
C193        C  0.28490154  0.38237550  0.01717700    -0.09600
C194        C  0.27334552  0.35456429  0.05698079     0.06600
C195        C  0.29229327  0.35135830  0.11008944    -0.03400
C196        C  0.32160778  0.37557435  0.12156125    -0.07800
C197        C  0.33201107  0.40305415  0.08106484     0.05700
C198        C  0.31411682  0.40591799  0.02674266    -0.02800
Br199      Br  0.32815955  0.44244995  0.96719922    -0.02500
H200        H  0.26933540  0.38733386  0.97879803     0.09600
H201        H  0.33645636  0.37280885  0.16108821     0.07700
Br202      Br  0.27781421  0.31512436  0.16943430    -0.03000
C203        C  0.10231018  0.44594341  0.02625495    -0.09600
C204        C  0.07015712  0.43207265  0.04040294     0.06600
C205        C  0.05672948  0.40055484  0.06488856    -0.03400
C206        C  0.07434164  0.38250567  0.06551791    -0.07800
C207        C  0.10562857  0.39565373  0.04484539     0.05700
C208        C  0.11816903  0.42566032  0.52919393    -0.02800
Br209      Br  0.16236415  0.44617099  0.51484694    -0.02500
H210        H  0.11213735  0.46841957  0.51258594     0.09600
H211        H  0.06376133  0.35821273  0.08295049     0.07700
Br212      Br  0.01611876  0.38169587  0.10583913    -0.03000
C213        C  0.12765975  0.20712866  0.24612882    -0.09600
C214        C  0.11506870  0.22101519  0.29303494     0.06600
C215        C  0.08971753  0.20127218  0.33318746    -0.03400
C216        C  0.07872621  0.16871335  0.32933495    -0.07800
C217        C  0.09085026  0.15487714  0.28170720     0.05700
C218        C  0.11506472  0.17435818  0.23892551    -0.02800
Br219      Br  0.12847143  0.15763128  0.16472419    -0.02500
H220        H  0.14669625  0.22183049  0.21362674     0.09600
H221        H  0.05908130  0.15416490  0.36093793     0.07700
Br222      Br  0.06641283  0.21747062  0.38689045    -0.03000
C223        C  0.30043452  0.35996785  0.30309386    -0.09600
C224        C  0.28448667  0.37974987  0.29609335     0.06600
C225        C  0.30165960  0.41203267  0.28853057    -0.03400
C226        C  0.33407011  0.42420415  0.28732864    -0.07800
C227        C  0.35054019  0.40466117  0.29180230     0.05700
C228        C  0.33325089  0.37205480  0.29851503    -0.02800
Br229      Br  0.35251531  0.34321963  0.29224183    -0.02500
H230        H  0.28712159  0.33488139  0.30939874     0.09600
H231        H  0.34622431  0.44947298  0.28165720     0.07700
Br232      Br  0.28161884  0.44033972  0.28067801    -0.03000
C233        C  0.11131057  0.39870502  0.30172779    -0.09600
C234        C  0.14321210  0.41910331  0.30390274     0.06600
C235        C  0.15241117  0.44917954  0.32886665    -0.03400
C236        C  0.13001228  0.45809656  0.35446790    -0.07800
C237        C  0.09828025  0.43698643  0.35658051     0.05700
C238        C  0.08873086  0.40714246  0.32839117    -0.02800
Br239      Br  0.04627862  0.37590795  0.32703796    -0.02500
H240        H  0.10431999  0.37506364  0.28392106     0.09600
H241        H  0.13780097  0.48134419  0.37504843     0.07700
Br242      Br  0.19545084  0.47774814  0.33250588    -0.03000
C243        C  0.37199141  0.08540012  0.20012464    -0.09600
C244        C  0.38914696  0.11812800  0.19406521     0.06600
C245        C  0.42195683  0.12995940  0.19225567    -0.03400
C246        C  0.43704670  0.10954504  0.19798062    -0.07800
C247        C  0.42002575  0.07682002  0.20551716     0.05700
C248        C  0.38695678  0.06472615  0.20501555    -0.02800
Br249      Br  0.36051967  0.02060519  0.21327234    -0.02500
H250        H  0.34673139  0.07594579  0.20218064     0.09600
H251        H  0.46235105  0.11954669  0.19831814     0.07700
Br252      Br  0.44697011  0.17419368  0.18666804    -0.03000
C253        C  0.39548249  0.29038769  0.24351443    -0.09600
C254        C  0.36748755  0.28045162  0.20672464     0.06600
C255        C  0.36360962  0.30049704  0.15696785    -0.03400
C256        C  0.38741040  0.32964224  0.14310429    -0.07800
C257        C  0.41536515  0.33918703  0.17926546     0.05700
C258        C  0.41922366  0.32004380  0.23086429    -0.02800
Br259      Br  0.45725069  0.33317445  0.28186581    -0.02500
H260        H  0.39973838  0.27476590  0.27911524     0.09600
H261        H  0.38378709  0.34507754  0.10530438     0.07700
Br262      Br  0.32598754  0.28813702  0.10653545    -0.03000
C263        C  0.19887859  0.06058451  0.17980890    -0.09600
C264        C  0.21376561  0.09247554  0.19530638     0.06600
C265        C  0.19680992  0.11125062  0.19573389    -0.03400
C266        C  0.16518626  0.09789547  0.18243867    -0.07800
C267        C  0.15035955  0.06616542  0.16794093     0.05700
C268        C  0.16690701  0.04722077  0.16612939    -0.02800
Br269      Br  0.14635255  0.00338012  0.14662453    -0.02500
H270        H  0.21220781  0.04643324  0.17751732     0.09600
H271        H  0.15206603  0.11219446  0.18348720     0.07700
Br272      Br  0.21622982  0.15558157  0.21007216    -0.03000
C273        C  0.39112486  0.11286500  0.47243286    -0.09600
C274        C  0.35881641  0.09507567  0.46925822     0.06600
C275        C  0.34719074  0.06597990  0.43818996    -0.03400
C276        C  0.36735565  0.05655983  0.40411290    -0.07800
C277        C  0.39942008  0.07598710  0.40018015     0.05700
C278        C  0.41162408  0.10407744  0.43697142    -0.02800
Br279      Br  0.45982294  0.13612303  0.93268171    -0.02500
H280        H  0.40599424  0.14169565  0.98829775     0.09600
H281        H  0.35750497  0.03467928  0.37742415     0.07700
Br282      Br  0.30314413  0.04156642  0.42993245    -0.03000
C283        C  0.40258217  0.29999877  0.94793496    -0.09600
C284        C  0.37468727  0.28381098  0.44110140     0.06600
C285        C  0.35671696  0.30182947  0.44061894    -0.03400
C286        C  0.37118118  0.33479230  0.44918179    -0.07800
C287        C  0.40383251  0.35058426  0.45624003     0.05700
C288        C  0.42159661  0.33185896  0.45604086    -0.02800
Br289      Br  0.46276256  0.34689751  0.96197834    -0.02500
H290        H  0.41603721  0.28592387  0.94745219     0.09600
H291        H  0.35690706  0.34806953  0.44907392     0.07700
Br292      Br  0.31254281  0.28220111  0.42510017    -0.03000
C293        C  0.18956610  0.12230785  0.40177341    -0.09600
C294        C  0.20451645  0.14713693  0.44558822     0.06600
C295        C  0.18514633  0.15511030  0.98840061    -0.03400
C296        C  0.15299510  0.13977398  0.48775184    -0.07800
C297        C  0.13856633  0.11416147  0.44589876     0.05700
C298        C  0.15722222  0.10571379  0.40192718    -0.02800
Br299      Br  0.14075433  0.07053982  0.34305636    -0.02500
H300        H  0.20332762  0.11463735  0.36927704     0.09600
H301        H  0.13840194  0.14497250  0.02287574     0.07700
Br302      Br  0.20297065  0.18995283  0.04692997    -0.03000
C303        C  0.31527101  0.17139686  0.53249971     0.29600
C304        C  0.31758198  0.17184435  0.87675171     0.29600
C305        C  0.31825798  0.14365515  0.49522524    -0.06600
C306        C  0.28614487  0.17019046  0.48952972    -0.07400
C307        C  0.33959337  0.20047745  0.49036272    -0.07300
C308        C  0.32311834  0.14650078  0.92160207    -0.06600
C309        C  0.28667134  0.16914647  0.91547101    -0.07400
C310        C  0.34184684  0.20084217  0.91736112    -0.07300
C311        C  0.34367606  0.13320547  0.91298278    -0.32700
N312        N  0.34489681  0.11657889  0.96846786     0.13800
C313        C  0.32684967  0.12038694  0.51918411    -0.32700
H314        H  0.32650722  0.11222055  0.57079595     0.15800
C315        C  0.25680814  0.16380159  0.89438336    -0.31600
N316        N  0.23841382  0.16093888  0.44854009     0.12600
C317        C  0.25563323  0.16429480  0.50596409    -0.31600
C318        C  0.35773473  0.23190478  0.89657506    -0.31900
N319        N  0.36074602  0.24974324  0.44359887     0.13100
H320        H  0.36910827  0.23976463  0.84885681     0.15700
C321        C  0.34586399  0.23206549  0.49764697    -0.31900
H322        H  0.33513458  0.24094142  0.53409145     0.15700
H323        H  0.24605857  0.16011170  0.55650928     0.15700
H324        H  0.36291854  0.14222683  0.87846397     0.15800
H325        H  0.24907768  0.16168358  0.84251716     0.15700
C326        C  0.31737170  0.16949173  0.78215287     0.29600
C327        C  0.31845123  0.17078729  0.62604896     0.29600
C328        C  0.34392886  0.16303482  0.74141014    -0.06600
C329        C  0.28984403  0.14470212  0.74112546    -0.07400
C330        C  0.31785385  0.19906450  0.73942203    -0.07300
C331        C  0.34570719  0.16604554  0.66671711    -0.06600
C332        C  0.29068355  0.14544022  0.66711292    -0.07400
C333        C  0.32133505  0.20009994  0.66573744    -0.07300
C334        C  0.36604027  0.15318864  0.64597895    -0.32700
N335        N  0.37200467  0.13743482  0.69855086     0.13800
C336        C  0.35613991  0.14043352  0.75262987    -0.32700
H337        H  0.34788228  0.12182006  0.79000357     0.15800
C338        C  0.26379709  0.12158577  0.64664349    -0.31600
N339        N  0.24630704  0.10740517  0.70157831     0.12600
C340        C  0.26186722  0.12053825  0.75875181    -0.31600
C341        C  0.34295013  0.23009825  0.65345552    -0.31900
N342        N  0.34490709  0.24850206  0.70523266     0.13100
H343        H  0.36140564  0.23670643  0.61665819     0.15700
C344        C  0.32883112  0.23014760  0.75750037    -0.31900
H345        H  0.32566626  0.23890467  0.80517556     0.15700
H346        H  0.25230955  0.11437477  0.80919592     0.15700
H347        H  0.37366610  0.15280165  0.59489258     0.15800
H348        H  0.25610570  0.11641723  0.59498830     0.15700
N349        N  0.05643306  0.07215898  0.93908519    -0.06500
N350        N  0.08051698  0.09968613  0.94512552    -0.58700
N351        N  0.05871346  0.07176905  0.79026453    -0.06200
N352        N  0.08447776  0.09782483  0.78023180    -0.60800
N353        N  0.03451476  0.07901701  0.79218885    -0.05800
N354        N  0.04270869  0.10888501  0.77961283    -0.58600
N355        N  0.06651437  0.04980228  0.94070117    -0.05500
N356        N  0.09630504  0.06097362  0.95429522    -0.61100
C357        C  0.10502823  0.09200420  0.95724531     0.95600
C358        C  0.07375053  0.12069117  0.77127490     0.95400
N359        N  0.52063752  0.45817972  0.78556760    -0.06700
N360        N  0.52614516  0.43640525  0.75493315    -0.59200
N361        N  0.05747160  0.48128931  0.88927430    -0.04900
N362        N  0.08415571  0.47869199  0.88878421    -0.60500
N363        N  0.03380352  0.45326527  0.88952961    -0.06800
N364        N  0.04454002  0.43132255  0.88679357    -0.59500
N365        N  0.04507613  0.98384201  0.77688704    -0.04500
N366        N  0.06700134  0.97996058  0.74248019    -0.60600
Mn367      Mn  0.04992698  0.02311931  0.84748561     1.18400
C368        C  0.55160843  0.95534762  0.71209933     0.97700
C369        C  0.07593201  0.44761073  0.88580760     0.98400
N370        N  0.46150907  0.05782589  0.85218272    -0.06800
N371        N  0.45241607  0.08087672  0.85660380    -0.63100
N372        N  0.44394097  0.52217339  0.96498741    -0.05600
N373        N  0.42229909  0.52227869  0.49787531    -0.63800
N374        N  0.96883008  0.04632405  0.96073367    -0.06300
N375        N  0.96216406  0.06818525  0.49292944    -0.63400
N376        N  0.43699588  0.03036044  0.85137887    -0.05200
N377        N  0.41128253  0.03498845  0.85584195    -0.64000
Mn378      Mn  0.00752386  0.05888687  0.88499727     1.10700
C379        C  0.42108467  0.06631354  0.86137023     0.98900
C380        C  0.43748935  0.54848400  0.53307542     0.99000
N381        N  0.45527880  0.42898461  0.94937493    -0.06300
N382        N  0.44819590  0.39941180  0.96116759    -0.61700
N383        N  0.42568554  0.46076052  0.80133573    -0.05600
N384        N  0.39652455  0.45291095  0.78708714    -0.58400
N385        N  0.43278868  0.43642766  0.80424652    -0.06900
N386        N  0.40651520  0.41051468  0.79914936    -0.61200
N387        N  0.43023121  0.43478515  0.94669527    -0.05900
N388        N  0.40516155  0.40760043  0.95026544    -0.58400
Mn389      Mn  0.48245024  0.44873105  0.85891153     1.20200
Mn390      Mn  0.43983081  0.48484044  0.89404969     1.10100
Cl391      Cl  0.49386211  0.00470052  0.87198981    -0.86400
C392        C  0.41713074  0.38587405  0.96252393     0.95900
C393        C  0.38436978  0.42171951  0.78543005     0.95700
N394        N  0.07381560  0.05395765  0.66943221    -0.06500
N395        N  0.09748800  0.05402527  0.70510775    -0.58700
N396        N  0.03972241  0.08306914  0.56470751    -0.06200
N397        N  0.04078219  0.10766025  0.52975346    -0.60800
N398        N  0.03664906  0.08665581  0.62896985    -0.05800
N399        N  0.03695172  0.11429634  0.63947247    -0.58600
N400        N  0.07798219  0.05068603  0.60525278    -0.05500
N401        N  0.10497653  0.04923971  0.59549025    -0.61100
C402        C  0.11682225  0.05146996  0.65827709     0.95600
C403        C  0.04081538  0.12768110  0.57724274     0.95400
N404        N  0.46322683  0.50201443  0.58956604    -0.06700
N405        N  0.43718666  0.50674735  0.10099935    -0.59200
N406        N  0.03670113  0.48669789  0.51129170    -0.04900
N407        N  0.06152177  0.48018151  0.52041526    -0.60500
N408        N  0.01110076  0.46033416  0.51153137    -0.06800
N409        N  0.01824953  0.43584731  0.51961159    -0.59500
N410        N  0.98732736  0.02822759  0.58278563    -0.04500
N411        N  0.97898184  0.05161763  0.09566819    -0.60600
Mn412      Mn  0.03472737  0.03457108  0.53527234     1.18400
C413        C  0.44858079  0.04058665  0.09325971     0.97700
C414        C  0.04970780  0.44834995  0.52490246     0.98400
N415        N  0.47528544  0.04278762  0.73000594    -0.06800
N416        N  0.46847444  0.06751344  0.72184706    -0.63100
N417        N  0.49742561  0.47189100  0.66162031    -0.05600
N418        N  0.50585299  0.44863158  0.65105295    -0.63800
N419        N  0.02127040  0.99811383  0.65456574    -0.06300
N420        N  0.04605907  0.99280563  0.64085313    -0.63400
N421        N  0.44935990  0.01666000  0.72985188    -0.05200
N422        N  0.42471081  0.02368292  0.72245456    -0.64000
Mn423      Mn  0.02381846  0.04386676  0.70059170     1.10700
C424        C  0.43690317  0.05558280  0.71818929     0.98900
C425        C  0.53748730  0.46202064  0.65387878     0.99000
N426        N  0.44811444  0.41374485  0.61589224    -0.06300
N427        N  0.44353933  0.38459432  0.60570081    -0.61700
N428        N  0.40664819  0.44820770  0.63454102    -0.05600
N429        N  0.37668084  0.43740997  0.64755754    -0.58400
N430        N  0.41132442  0.44551705  0.57057590    -0.06900
N431        N  0.38484279  0.43405664  0.53783346    -0.61200
N432        N  0.44466028  0.41783789  0.67975809    -0.05900
N433        N  0.43902866  0.39199714  0.71513474    -0.58400
Mn434      Mn  0.46172553  0.45686993  0.54325464     1.20200
Mn435      Mn  0.44993217  0.46713993  0.70446038     1.10100
Cl436      Cl  0.49263759  0.00094493  0.62089480    -0.86400
C437        C  0.43731321  0.37114969  0.66811426     0.95900
C438        C  0.36351363  0.42863623  0.58672299     0.95700
C439        C  0.16902378  0.33442246  0.71955411     0.29600
C440        C  0.17114799  0.33436983  0.87550041     0.29600
C441        C  0.16188093  0.35929551  0.75964299    -0.06600
C442        C  0.14647517  0.30483589  0.76382277    -0.07400
C443        C  0.20106466  0.34128388  0.75882705    -0.07300
C444        C  0.16311682  0.35915825  0.83377513    -0.06600
C445        C  0.15031128  0.30391913  0.83662857    -0.07400
C446        C  0.20195937  0.34108125  0.83377634    -0.07300
C447        C  0.16867759  0.38925464  0.85034047    -0.32700
N448        N  0.16466626  0.40523546  0.79611485     0.13800
C449        C  0.16425062  0.38883249  0.74088147    -0.32700
H450        H  0.16703002  0.39900576  0.69058660     0.15800
C451        C  0.14319580  0.27242088  0.85092858    -0.31600
N452        N  0.12728438  0.25443344  0.79925508     0.12600
C453        C  0.12744353  0.27423230  0.74820256    -0.31600
C454        C  0.23267262  0.35856150  0.84951653    -0.31900
N455        N  0.25065427  0.36683441  0.79473411     0.13100
H456        H  0.24167983  0.37007100  0.90024449     0.15700
C457        C  0.23177721  0.36026230  0.74023421    -0.32500
H458        H  0.23995394  0.37192960  0.69210417     0.15700
H459        H  0.11245970  0.26690068  0.70509897     0.15700
H460        H  0.17467248  0.39929925  0.89961067     0.15800
H461        H  0.15128061  0.26359539  0.89424671     0.15700
C462        C  0.16846881  0.33429324  0.96934625     0.29600
C463        C  0.16832547  0.33351683  0.62562351     0.29600
C464        C  0.15648025  0.35652736  0.00879559    -0.06600
C465        C  0.14706973  0.30407247  0.01169008    -0.07400
C466        C  0.19929984  0.34098072  0.01129955    -0.07300
C467        C  0.15467140  0.35434959  0.58328405    -0.06600
C468        C  0.15080681  0.30257090  0.58567292    -0.07400
C469        C  0.19930511  0.34215044  0.58534827    -0.07300
C470        C  0.13203497  0.36477784  0.60056887    -0.32700
N471        N  0.12352877  0.37691457  0.04510072     0.13800
C472        C  0.13491382  0.36871639  0.98997585    -0.32700
H473        H  0.12585004  0.36935267  0.93993704     0.15800
C474        C  0.14078318  0.27145096  0.60203129    -0.31600
N475        N  0.12184076  0.25546841  0.04956262     0.12600
C476        C  0.12550214  0.27486694  0.99577437    -0.31600
C477        C  0.22289665  0.33356468  0.60432423    -0.31900
N478        N  0.24081511  0.33338128  0.05261169     0.13100
H479        H  0.22363006  0.32200493  0.65157396     0.15700
C480        C  0.22395642  0.33311943  0.99674619    -0.31900
H481        H  0.22776962  0.32389957  0.95037285     0.15700
H482        H  0.11181634  0.26845150  0.95062149     0.15700
H483        H  0.12219822  0.36366665  0.65009617     0.15800
H484        H  0.14701994  0.26112516  0.64566762     0.15700
C485        C  0.07814348  0.21403700  0.60303259    -0.09600
C486        C  0.10278521  0.22281727  0.55652386     0.06600
C487        C  0.10625138  0.20099708  0.01865412    -0.03400
C488        C  0.08510690  0.16966879  0.52199529    -0.07800
C489        C  0.06032055  0.16067289  0.56831390     0.05700
C490        C  0.05733169  0.18281650  0.61067842    -0.02800
Br491      Br  0.02594631  0.17175283  0.67993916    -0.02500
H492        H  0.07535659  0.23150013  0.63371893     0.09600
H493        H  0.08964203  0.15301619  0.99477949     0.07700
Br494      Br  0.14390044  0.21098038  0.96889882    -0.03000
C495        C  0.28429135  0.38466934  0.51818196    -0.09600
C496        C  0.27370917  0.35618379  0.55643197     0.06600
C497        C  0.29323953  0.35253289  0.60734121    -0.03400
C498        C  0.32288308  0.37644576  0.61744503    -0.07800
C499        C  0.33262564  0.40444960  0.57875123     0.05700
C500        C  0.31358018  0.40843478  0.52851622    -0.02800
Br501      Br  0.32576419  0.44714053  0.47650740    -0.02500
H502        H  0.26927268  0.38966928  0.48402925     0.09600
H503        H  0.33822157  0.37324891  0.65523543     0.07700
Br504      Br  0.27912129  0.31642995  0.66708561    -0.03000
C505        C  0.10065095  0.44373622  0.52694379    -0.09600
C506        C  0.06839453  0.42990972  0.53993927     0.06600
C507        C  0.05465793  0.39822409  0.56328529    -0.03400
C508        C  0.07212205  0.38002450  0.56371709    -0.07800
C509        C  0.10358075  0.39322251  0.54430966     0.05700
C510        C  0.11996241  0.42799251  0.02840819    -0.02800
Br511      Br  0.16397832  0.44859705  0.01180845    -0.02500
H512        H  0.11357041  0.47052020  0.01087592     0.09600
H513        H  0.06132798  0.35561516  0.58027240     0.07700
Br514      Br  0.01389474  0.37938491  0.60355006    -0.03000
C515        C  0.12884167  0.20679022  0.75007151    -0.09600
C516        C  0.11561867  0.22056441  0.79571072     0.06600
C517        C  0.09002612  0.20068819  0.83510395    -0.03400
C518        C  0.07918441  0.16811015  0.83118453    -0.07800
C519        C  0.09174925  0.15432416  0.78427211     0.05700
C520        C  0.11651849  0.17402878  0.74280164    -0.02800
Br521      Br  0.13126509  0.15797924  0.66971232    -0.02500
H522        H  0.14811838  0.22163758  0.71826191     0.09600
H523        H  0.05925689  0.15351031  0.86200168     0.07700
Br524      Br  0.06611834  0.21671325  0.88738037    -0.03000
C525        C  0.30037393  0.36076050  0.80368966    -0.09600
C526        C  0.28419802  0.38020406  0.79323354     0.06600
C527        C  0.30103618  0.41197778  0.77754832    -0.03400
C528        C  0.33334736  0.42425078  0.77516808    -0.07800
C529        C  0.34999045  0.40518543  0.78583733     0.05700
C530        C  0.33310215  0.37282201  0.79733174    -0.02800
Br531      Br  0.35274507  0.34413322  0.79520600    -0.02500
H532        H  0.28726289  0.33586372  0.81353034     0.09600
H533        H  0.34530233  0.44920278  0.76389583     0.07700
Br534      Br  0.28080383  0.43956753  0.75951464    -0.03000
C535        C  0.11043917  0.39693093  0.80637498    -0.09600
C536        C  0.14213652  0.41802345  0.80355094     0.06600
C537        C  0.15128558  0.44872877  0.82454759    -0.03400
C538        C  0.12905832  0.45784015  0.85038667    -0.07800
C539        C  0.09760233  0.43623643  0.85715102     0.05700
C540        C  0.08813936  0.40547480  0.83409402    -0.02800
Br541      Br  0.04641909  0.37307035  0.84287613    -0.02500
H542        H  0.10360881  0.37279136  0.79208462     0.09600
H543        H  0.13684586  0.48170400  0.86746299     0.07700
Br544      Br  0.19416333  0.47792978  0.82261343    -0.03000
C545        C  0.37163775  0.08426390  0.68797839    -0.09600
C546        C  0.38819946  0.11680812  0.69644068     0.06600
C547        C  0.42053740  0.12852031  0.70856259    -0.03400
C548        C  0.43569988  0.10821652  0.71287551    -0.07800
C549        C  0.41923814  0.07557818  0.70634780     0.05700
C550        C  0.38679007  0.06364178  0.69235132    -0.02800
Br551      Br  0.36177827  0.01985480  0.67788958    -0.02500
H552        H  0.34671953  0.07486175  0.67873865     0.09600
H553        H  0.46050995  0.11812603  0.72375238     0.07700
Br554      Br  0.44473607  0.17221514  0.72254020    -0.03000
C555        C  0.39382578  0.29073804  0.74174947    -0.09600
C556        C  0.36606194  0.28083790  0.70418311     0.06600
C557        C  0.36265173  0.30084524  0.65354897    -0.03400
C558        C  0.38658712  0.33006414  0.64045816    -0.07800
C559        C  0.41426931  0.33953904  0.67766385     0.05700
C560        C  0.41773206  0.32029031  0.72946236    -0.02800
Br561      Br  0.45561928  0.33295359  0.78083308    -0.02500
H562        H  0.39790404  0.27502441  0.77736714     0.09600
H563        H  0.38337915  0.34550674  0.60206565     0.07700
Br564      Br  0.32586858  0.28819318  0.59986644    -0.03000
C565        C  0.19879465  0.05993548  0.68319710    -0.09600
C566        C  0.21328073  0.09207031  0.69690888     0.06600
C567        C  0.19581434  0.11033459  0.69654615    -0.03400
C568        C  0.16425530  0.09642011  0.68265836    -0.07800
C569        C  0.14983248  0.06452780  0.66948310     0.05700
C570        C  0.16677017  0.04591405  0.66990764    -0.02800
Br571      Br  0.14665868  0.00165487  0.65437011    -0.02500
H572        H  0.21244554  0.04607046  0.68218591     0.09600
H573        H  0.15076688  0.11033025  0.68270213     0.07700
Br574      Br  0.21439546  0.15462341  0.71157554    -0.03000
C575        C  0.39664050  0.11802454  0.96952907    -0.09600
C576        C  0.36434975  0.10010670  0.97109570     0.06600
C577        C  0.35200258  0.06969284  0.94640099    -0.03400
C578        C  0.37111874  0.05920318  0.91147388    -0.07800
C579        C  0.40295626  0.07858422  0.90206557     0.05700
C580        C  0.41622843  0.10774671  0.93496023    -0.02800
Br581      Br  0.45490654  0.13331211  0.43761358    -0.02500
H582        H  0.39991557  0.13578761  0.49484975     0.09600
H583        H  0.36055446  0.03632656  0.88890376     0.07700
Br584      Br  0.30804075  0.04407170  0.94934621    -0.03000
C585        C  0.40689556  0.29932777  0.44849612    -0.09600
C586        C  0.37022262  0.28509844  0.94364084     0.06600
C587        C  0.35272527  0.30358242  0.94572215    -0.03400
C588        C  0.36797723  0.33640931  0.95361968    -0.07800
C589        C  0.40071766  0.35128550  0.95747111     0.05700
C590        C  0.41797193  0.33231300  0.95501245    -0.02800
Br591      Br  0.46631718  0.34715821  0.46665724    -0.02500
H592        H  0.42075262  0.28561824  0.45017185     0.09600
H593        H  0.35427609  0.35027067  0.95520308     0.07700
Br594      Br  0.30831293  0.28515428  0.93390774    -0.03000
C595        C  0.18882205  0.12135815  0.90146442    -0.09600
C596        C  0.20383246  0.14600694  0.94564131     0.06600
C597        C  0.18573890  0.15624003  0.48811362    -0.03400
C598        C  0.15241479  0.13870507  0.98813801    -0.07800
C599        C  0.13794484  0.11313130  0.94626421     0.05700
C600        C  0.15648855  0.10482298  0.90174043    -0.02800
Br601      Br  0.13985705  0.06990093  0.84230887    -0.02500
H602        H  0.20252805  0.11376087  0.86864070     0.09600
H603        H  0.13893364  0.14605605  0.52239521     0.07700
Br604      Br  0.20344991  0.19116748  0.54648301    -0.03000
C605        C  0.31668689  0.67294475  0.03208413     0.29600
C606        C  0.31925848  0.67255446  0.37610603     0.29600
C607        C  0.31967151  0.64525426  0.99507289    -0.06600
C608        C  0.28744841  0.67148266  0.98916571    -0.07400
C609        C  0.34079486  0.70210525  0.98986000    -0.07300
C610        C  0.32342396  0.64642348  0.42089011    -0.06600
C611        C  0.28879191  0.67112817  0.41489801    -0.07400
C612        C  0.34441779  0.70092288  0.41658906    -0.07300
C613        C  0.34230149  0.63131227  0.41156687    -0.32700
N614        N  0.34278758  0.61432264  0.46696945     0.13800
C615        C  0.32845306  0.62236701  0.01995185    -0.32700
H616        H  0.32769932  0.61419274  0.07168232     0.15800
C617        C  0.25893916  0.66603850  0.39407284    -0.31600
N618        N  0.23976619  0.66256879  0.94819284     0.12600
C619        C  0.25697485  0.66578208  0.00561150    -0.31600
C620        C  0.36105637  0.73183336  0.39540191    -0.31900
N621        N  0.36081666  0.75133502  0.94276965     0.13100
H622        H  0.37205960  0.73931824  0.34710491     0.15700
C623        C  0.34641006  0.73354141  0.99707057    -0.31900
H624        H  0.33569213  0.74209938  0.03409830     0.15700
H625        H  0.24742562  0.66167316  0.05617385     0.15700
H626        H  0.36167605  0.63967366  0.37754275     0.15800
H627        H  0.25106027  0.66357689  0.34228718     0.15700
C628        C  0.31918678  0.67051328  0.28152172     0.29600
C629        C  0.32023489  0.67227217  0.12552814     0.29600
C630        C  0.34583392  0.66430607  0.24051335    -0.06600
C631        C  0.29172051  0.64585213  0.24031712    -0.07400
C632        C  0.31970385  0.70023172  0.23939898    -0.07300
C633        C  0.34769911  0.66764465  0.16589034    -0.06600
C634        C  0.29261100  0.64676557  0.16637134    -0.07400
C635        C  0.32306844  0.70143750  0.16562445    -0.07300
C636        C  0.36819348  0.65498754  0.14486740    -0.32700
N637        N  0.37383754  0.63867852  0.19689316     0.13800
C638        C  0.35767255  0.64138488  0.25082019    -0.32700
H639        H  0.34853968  0.62222269  0.28668039     0.15800
C640        C  0.26576223  0.62303809  0.14558467    -0.31600
N641        N  0.24815055  0.60887675  0.20032616     0.12600
C642        C  0.26364073  0.62183314  0.25769226    -0.31600
C643        C  0.34477425  0.73138683  0.15344741    -0.31900
N644        N  0.34714947  0.74965422  0.20573029     0.13100
H645        H  0.36283912  0.73813054  0.11569592     0.15700
C646        C  0.33112108  0.73128096  0.25800500    -0.31900
H647        H  0.32841783  0.73997864  0.30613055     0.15700
H648        H  0.25391646  0.61580831  0.30803373     0.15700
H649        H  0.37569805  0.65467500  0.09364566     0.15800
H650        H  0.25809289  0.61808972  0.09385441     0.15700
N651        N  0.05863710  0.57420362  0.43988037    -0.06500
N652        N  0.08267112  0.60177756  0.44562721    -0.58700
N653        N  0.06024662  0.57338582  0.29098461    -0.06200
N654        N  0.08575783  0.59951860  0.27985291    -0.60800
N655        N  0.03585844  0.58031218  0.29274066    -0.05800
N656        N  0.04361012  0.60998446  0.27872927    -0.58600
N657        N  0.06878612  0.55190830  0.44201286    -0.05500
N658        N  0.09860751  0.56321163  0.45546282    -0.61100
C659        C  0.10724161  0.59423949  0.45814038     0.95600
C660        C  0.07460896  0.62198309  0.26978889     0.95400
N661        N  0.52139364  0.95897219  0.28282251    -0.06700
N662        N  0.52673411  0.93725640  0.25159309    -0.59200
N663        N  0.05640688  0.98097045  0.38850450    -0.04900
N664        N  0.08316511  0.97850944  0.38805381    -0.60500
N665        N  0.03283027  0.95288977  0.38815547    -0.06800
N666        N  0.04371446  0.93105257  0.38504150    -0.59500
N667        N  0.04772547  0.48636719  0.27795785    -0.04500
N668        N  0.06974187  0.48291868  0.24302743    -0.60600
Mn669      Mn  0.05211651  0.52523929  0.34896098     1.18400
C670        C  0.55077840  0.45379936  0.21390528     0.97700
C671        C  0.07509521  0.94746693  0.38445141     0.98400
N672        N  0.46029154  0.55572036  0.35457010    -0.06800
N673        N  0.45086379  0.57855886  0.35870620    -0.63100
N674        N  0.44512732  0.01994875  0.46562240    -0.05600
N675        N  0.42291976  0.02444927  0.99486441    -0.63800
N676        N  0.97072859  0.54816313  0.46161972    -0.06300
N677        N  0.96325184  0.56908774  0.99249693    -0.63400
N678        N  0.43600256  0.52809363  0.35403899    -0.05200
N679        N  0.41010796  0.53234036  0.35862792    -0.64000
Mn680      Mn  0.00951989  0.56069765  0.38628521     1.10700
C681        C  0.41955489  0.56362897  0.36349869     0.98900
C682        C  0.43811972  0.05053145  0.03039338     0.99000
N683        N  0.45747328  0.93104530  0.44606760    -0.06300
N684        N  0.45051340  0.90136150  0.45855687    -0.61700
N685        N  0.42701007  0.96107795  0.30282834    -0.05600
N686        N  0.39810110  0.95331363  0.28568693    -0.58400
N687        N  0.43410723  0.93679741  0.30439529    -0.06900
N688        N  0.40781629  0.91092233  0.29827348    -0.61200
N689        N  0.43253462  0.93718545  0.44253151    -0.05900
N690        N  0.40764623  0.90949710  0.44760858    -0.58400
Mn691      Mn  0.48376275  0.94961001  0.35637246     1.20200
Mn692      Mn  0.43644804  0.98550487  0.39159258     1.10100
Cl693      Cl  0.49325775  0.50309431  0.37399203    -0.86400
C694        C  0.41950134  0.88746885  0.45998338     0.95900
C695        C  0.38572568  0.92213137  0.28390944     0.95700
N696        N  0.07574038  0.55715888  0.16815687    -0.06500
N697        N  0.09964716  0.55765781  0.20354986    -0.58700
N698        N  0.04060982  0.58507696  0.06320957    -0.06200
N699        N  0.04085091  0.60913525  0.02746107    -0.60800
N700        N  0.03793347  0.58910392  0.12741698    -0.05800
N701        N  0.03775717  0.61661467  0.13709662    -0.58600
N702        N  0.07966041  0.55354065  0.10404161    -0.05500
N703        N  0.10671539  0.55228396  0.09398446    -0.61100
C704        C  0.11882153  0.55500542  0.15654345     0.95600
C705        C  0.04095289  0.62944210  0.07434006     0.95400
N706        N  0.46307196  0.00346942  0.08706317    -0.06700
N707        N  0.43765581  0.00749999  0.60029104    -0.59200
N708        N  0.03629445  0.98664236  0.01021400    -0.04900
N709        N  0.06137718  0.98055459  0.01904399    -0.60500
N710        N  0.01089816  0.96006503  0.01069294    -0.06800
N711        N  0.01846234  0.93584141  0.01902070    -0.59500
N712        N  0.98886716  0.53030155  0.08382548    -0.04500
N713        N  0.98042866  0.55267352  0.59625056    -0.60600
Mn714      Mn  0.03610917  0.53667471  0.03505723     1.18400
C715        C  0.44837177  0.53886572  0.59577658     0.97700
C716        C  0.04995680  0.94875353  0.02384699     0.98400
N717        N  0.47471598  0.54193206  0.23226792    -0.06800
N718        N  0.46788186  0.56666095  0.22416408    -0.63100
N719        N  0.49728546  0.97313244  0.15967195    -0.05600
N720        N  0.50564799  0.94984278  0.14893429    -0.63800
N721        N  0.02346818  0.50080680  0.15561631    -0.06300
N722        N  0.04836957  0.49573540  0.14175491    -0.63400
N723        N  0.44882134  0.51579039  0.23192094    -0.05200
N724        N  0.42416613  0.52278970  0.22444804    -0.64000
Mn725      Mn  0.02581291  0.54669335  0.20005073     1.10700
C726        C  0.43629665  0.55470530  0.22057689     0.98900
C727        C  0.53730309  0.96320721  0.15100287     0.99000
N728        N  0.44775975  0.91519023  0.11271647    -0.06300
N729        N  0.44353072  0.88612180  0.10256078    -0.61700
N730        N  0.40635227  0.94967894  0.13223513    -0.05600
N731        N  0.37634779  0.93830303  0.14547360    -0.58400
N732        N  0.41104420  0.94714451  0.06817829    -0.06900
N733        N  0.38456202  0.93529546  0.03558233    -0.61200
N734        N  0.44451107  0.91929075  0.17666351    -0.05900
N735        N  0.43954859  0.89361813  0.21206786    -0.58400
Mn736      Mn  0.46133851  0.95837504  0.04033957     1.20200
Mn737      Mn  0.44971558  0.96843528  0.20224561     1.10100
Cl738      Cl  0.49210688  0.49986521  0.12353223    -0.86400
C739        C  0.43785247  0.87279066  0.16512420     0.95900
C740        C  0.36319290  0.92944648  0.08455788     0.95700
C741        C  0.17012594  0.83566142  0.21688282     0.29600
C742        C  0.17199563  0.83514079  0.37294606     0.29600
C743        C  0.16345180  0.86079767  0.25743454    -0.06600
C744        C  0.14710790  0.80618137  0.26066037    -0.07400
C745        C  0.20201952  0.84187151  0.25653503    -0.07300
C746        C  0.16447605  0.86032532  0.33151698    -0.06600
C747        C  0.15086843  0.80495492  0.33349719    -0.07400
C748        C  0.20276156  0.84155921  0.33131833    -0.07300
C749        C  0.16890539  0.88996542  0.34921745    -0.32700
N750        N  0.16477275  0.90603592  0.29527884     0.13800
C751        C  0.16496597  0.89015297  0.23947668    -0.32700
H752        H  0.16733045  0.90051545  0.18945206     0.15800
C753        C  0.14382584  0.77340504  0.34692920    -0.31600
N754        N  0.12800267  0.75567128  0.29489541     0.12600
C755        C  0.12819229  0.77565718  0.24427942    -0.31600
C756        C  0.23368447  0.85865166  0.34791463    -0.31900
N757        N  0.25168593  0.86658576  0.29268123     0.13100
H758        H  0.24249632  0.86910976  0.39568045     0.15700
C759        C  0.23295121  0.86027521  0.23817946    -0.32500
H760        H  0.24137203  0.87170937  0.18996311     0.15700
H761        H  0.11325304  0.76851160  0.20103037     0.15700
H762        H  0.17401141  0.89953628  0.39903106     0.15800
H763        H  0.15205015  0.76435331  0.38970978     0.15700
C764        C  0.16914687  0.83475455  0.46669582     0.29600
C765        C  0.16936407  0.83466146  0.12281382     0.29600
C766        C  0.15630114  0.85626646  0.50612895    -0.06600
C767        C  0.14848915  0.80422929  0.50894965    -0.07400
C768        C  0.20012881  0.84216907  0.50837908    -0.07300
C769        C  0.15648290  0.85612247  0.08047218    -0.06600
C770        C  0.15110120  0.80384951  0.08272786    -0.07400
C771        C  0.20018851  0.84246739  0.08263944    -0.07300
C772        C  0.13379229  0.86646732  0.09785499    -0.32700
N773        N  0.12192905  0.87488517  0.54243865     0.13800
C774        C  0.13394474  0.86742063  0.48728730    -0.32700
H775        H  0.12500023  0.86800846  0.43707470     0.15800
C776        C  0.14155963  0.77266295  0.09827185    -0.31600
N777        N  0.12366558  0.75564643  0.54707117     0.12600
C778        C  0.12716950  0.77494954  0.49320213    -0.31600
C779        C  0.22330970  0.83323039  0.10178138    -0.31900
N780        N  0.24122025  0.83367652  0.54938861     0.13100
H781        H  0.22379990  0.82163618  0.14918522     0.15700
C782        C  0.22430423  0.83356606  0.49391437    -0.31900
H783        H  0.22707209  0.82310654  0.44810502     0.15700
H784        H  0.11326108  0.76850404  0.44842188     0.15700
H785        H  0.12369546  0.86491109  0.14726272     0.15800
H786        H  0.14783589  0.76232780  0.14179742     0.15700
C787        C  0.07858131  0.71584632  0.09774483    -0.09600
C788        C  0.10355281  0.72417721  0.05226965     0.06600
C789        C  0.10730430  0.70117592  0.51605522    -0.03400
C790        C  0.08546689  0.67090028  0.01847951    -0.07800
C791        C  0.06045586  0.66233379  0.06413940     0.05700
C792        C  0.05741886  0.68478568  0.10536885    -0.02800
Br793      Br  0.02550963  0.67427662  0.17319168    -0.02500
H794        H  0.07584994  0.73354934  0.12773917     0.09600
H795        H  0.09029427  0.65321199  0.49296292     0.07700
Br796      Br  0.14430232  0.71089769  0.46392059    -0.03000
C797        C  0.28457446  0.88396715  0.01466177    -0.09600
C798        C  0.27398815  0.85583416  0.05393835     0.06600
C799        C  0.29349534  0.85277380  0.10564467    -0.03400
C800        C  0.32282811  0.87715672  0.11617257    -0.07800
C801        C  0.33251565  0.90482714  0.07632053     0.05700
C802        C  0.31375062  0.90788074  0.02422227    -0.02800
Br803      Br  0.32634948  0.94520195  0.96734020    -0.02500
H804        H  0.26936414  0.88868828  0.97922215     0.09600
H805        H  0.33810207  0.87446691  0.15478613     0.07700
Br806      Br  0.27967594  0.81661682  0.16513206    -0.03000
C807        C  0.10109119  0.94469828  0.02298913    -0.09600
C808        C  0.06911246  0.93077677  0.03871047     0.06600
C809        C  0.05607092  0.89941369  0.06418054    -0.03400
C810        C  0.07391338  0.88155837  0.06462401    -0.07800
C811        C  0.10496386  0.89469373  0.04208307     0.05700
C812        C  0.11809425  0.92587820  0.52746224    -0.02800
Br813      Br  0.16224922  0.94685291  0.51310822    -0.02500
H814        H  0.11161732  0.96842444  0.51132270     0.09600
H815        H  0.06366923  0.85741409  0.08311388     0.07700
Br816      Br  0.01567257  0.88058617  0.10622374    -0.03000
C817        C  0.12882058  0.70787986  0.24472836    -0.09600
C818        C  0.11610378  0.72182370  0.29115130     0.06600
C819        C  0.09090391  0.70212303  0.33174121    -0.03400
C820        C  0.08016750  0.66956524  0.32869451    -0.07800
C821        C  0.09234961  0.65565398  0.28137592     0.05700
C822        C  0.11642565  0.67509443  0.23822367    -0.02800
Br823      Br  0.12981348  0.65836470  0.16414019    -0.02500
H824        H  0.14776390  0.72253833  0.21197741     0.09600
H825        H  0.06061746  0.65505254  0.36056830     0.07700
Br826      Br  0.06729452  0.71826045  0.38462121    -0.03000
C827        C  0.30147916  0.86062822  0.29982134    -0.09600
C828        C  0.28522966  0.88009646  0.29230985     0.06600
C829        C  0.30203624  0.91235925  0.28320092    -0.03400
C830        C  0.33441356  0.92484373  0.28107800    -0.07800
C831        C  0.35119152  0.90564435  0.28665701     0.05700
C832        C  0.33427166  0.87302284  0.29473118    -0.02800
Br833      Br  0.35396059  0.84445903  0.29075643    -0.02500
H834        H  0.28841698  0.83554432  0.30702946     0.09600
H835        H  0.34630105  0.95008871  0.27423177     0.07700
Br836      Br  0.28158749  0.94030133  0.27523843    -0.03000
C837        C  0.11049816  0.89806372  0.30221290    -0.09600
C838        C  0.14228687  0.91891215  0.30283885     0.06600
C839        C  0.15122044  0.94906145  0.32728522    -0.03400
C840        C  0.12867357  0.95777354  0.35293499    -0.07800
C841        C  0.09705088  0.93636752  0.35598292     0.05700
C842        C  0.08780177  0.90625756  0.32931526    -0.02800
Br843      Br  0.04566738  0.87433987  0.33120905    -0.02500
H844        H  0.10375334  0.87432099  0.28525320     0.09600
H845        H  0.13628737  0.98115075  0.37274829     0.07700
Br846      Br  0.19412526  0.97808019  0.33017373    -0.03000
C847        C  0.37132823  0.58450374  0.20797374    -0.09600
C848        C  0.38862758  0.61675018  0.19355591     0.06600
C849        C  0.42102327  0.62735910  0.18245340    -0.03400
C850        C  0.43565447  0.60654337  0.18936223    -0.07800
C851        C  0.41858803  0.57451039  0.20614508     0.05700
C852        C  0.38574411  0.56332588  0.21285030    -0.02800
Br853      Br  0.35902169  0.51986940  0.23058218    -0.02500
H854        H  0.34637467  0.57580105  0.21611840     0.09600
H855        H  0.46075599  0.61575646  0.18268647     0.07700
Br856      Br  0.44660495  0.67056283  0.16172546    -0.03000
C857        C  0.39551515  0.79282895  0.24210390    -0.09600
C858        C  0.36785643  0.78212241  0.20409743     0.06600
C859        C  0.36400458  0.80156463  0.15277153    -0.03400
C860        C  0.38763302  0.83079113  0.13843112    -0.07800
C861        C  0.41533938  0.84101194  0.17560887     0.05700
C862        C  0.41903562  0.82254851  0.22890634    -0.02800
Br863      Br  0.45654074  0.83677956  0.28190907    -0.02500
H864        H  0.39968464  0.77774201  0.27927766     0.09600
H865        H  0.38405097  0.84576508  0.09946147     0.07700
Br866      Br  0.32669482  0.78830512  0.10080735    -0.03000
C867        C  0.20030141  0.56214316  0.18039113    -0.09600
C868        C  0.21515365  0.59411017  0.19520749     0.06600
C869        C  0.19819070  0.61286788  0.19500379    -0.03400
C870        C  0.16660255  0.59944365  0.18143530    -0.07800
C871        C  0.15179656  0.56766171  0.16740261     0.05700
C872        C  0.16834595  0.54869896  0.16657696    -0.02800
Br873      Br  0.14783408  0.50472358  0.14848692    -0.02500
H874        H  0.21364715  0.54799077  0.17873922     0.09600
H875        H  0.15347170  0.61371267  0.18204235     0.07700
Br876      Br  0.21757883  0.65723855  0.20893452    -0.03000
C877        C  0.39388959  0.61421159  0.47213268    -0.09600
C878        C  0.36149924  0.59707163  0.46926962     0.06600
C879        C  0.34912901  0.56748410  0.44042902    -0.03400
C880        C  0.36872339  0.55694287  0.40753070    -0.07800
C881        C  0.40090759  0.57572256  0.40282769     0.05700
C882        C  0.41387330  0.60410277  0.43858476    -0.02800
Br883      Br  0.45733715  0.63511308  0.93543347    -0.02500
H884        H  0.40321019  0.63983589  0.99180405     0.09600
H885        H  0.35836014  0.53466676  0.38247961     0.07700
Br886      Br  0.30491945  0.54357703  0.43437814    -0.03000
C887        C  0.40673095  0.80108421  0.94500953    -0.09600
C888        C  0.37389992  0.78546914  0.44134229     0.06600
C889        C  0.35598502  0.80355920  0.44184100    -0.03400
C890        C  0.37065351  0.83655615  0.44956410    -0.07800
C891        C  0.40336845  0.85224261  0.45513362     0.05700
C892        C  0.42100426  0.83342092  0.45445603    -0.02800
Br893      Br  0.46626067  0.84899705  0.95757145    -0.02500
H894        H  0.42069066  0.78748288  0.94527286     0.09600
H895        H  0.35648078  0.84993523  0.44996707     0.07700
Br896      Br  0.31162870  0.78415290  0.42899134    -0.03000
C897        C  0.19098605  0.62395876  0.40169949    -0.09600
C898        C  0.20607216  0.64854868  0.44595304     0.06600
C899        C  0.18708148  0.65765666  0.98864118    -0.03400
C900        C  0.15468823  0.64090099  0.48949540    -0.07800
C901        C  0.14016060  0.61545801  0.44724447     0.05700
C902        C  0.15866956  0.60734368  0.40225710    -0.02800
Br903      Br  0.14205297  0.57257371  0.34241470    -0.02500
H904        H  0.20462755  0.61645440  0.36850947     0.09600
H905        H  0.14028370  0.64700533  0.02380630     0.07700
Br906      Br  0.20472174  0.69253244  0.04713988    -0.03000
C907        C  0.31692579  0.67262119  0.53205531     0.29600
C908        C  0.31899897  0.67250419  0.87630870     0.29600
C909        C  0.32053884  0.64530256  0.49449776    -0.06600
C910        C  0.28757851  0.67081846  0.48923109    -0.07400
C911        C  0.34067407  0.70210947  0.49000808    -0.07300
C912        C  0.32263518  0.64613095  0.92147323    -0.06600
C913        C  0.28870656  0.67169448  0.91485089    -0.07400
C914        C  0.34454434  0.70070255  0.91654546    -0.07300
C915        C  0.34182236  0.63122462  0.91330507    -0.32700
N916        N  0.34232635  0.61454927  0.96930495     0.13800
C917        C  0.32924247  0.62214968  0.51837691    -0.32700
H918        H  0.32825343  0.61344474  0.56972079     0.15800
C919        C  0.25885425  0.66654622  0.89382303    -0.31600
N920        N  0.23996668  0.66215807  0.44860813     0.12600
C921        C  0.25721688  0.66534761  0.50589419    -0.31600
C922        C  0.36163578  0.73154079  0.89516229    -0.31900
N923        N  0.36006155  0.75141645  0.44332464     0.13100
H924        H  0.37276899  0.73889747  0.84692650     0.15700
C925        C  0.34591355  0.73343702  0.49763558    -0.31900
H926        H  0.33536761  0.74181858  0.53542189     0.15700
H927        H  0.24776786  0.66152509  0.55652547     0.15700
H928        H  0.36142456  0.63980699  0.87986917     0.15800
H929        H  0.25105285  0.66406553  0.84198566     0.15700
C930        C  0.31887581  0.67032256  0.78175586     0.29600
C931        C  0.32018122  0.67189267  0.62561255     0.29600
C932        C  0.34510376  0.66332645  0.74114231    -0.06600
C933        C  0.29106349  0.64615284  0.74038675    -0.07400
C934        C  0.32027863  0.70030972  0.73927067    -0.07300
C935        C  0.34700485  0.66637844  0.66649800    -0.06600
C936        C  0.29206495  0.64697966  0.66639692    -0.07400
C937        C  0.32381845  0.70138635  0.66551780    -0.07300
C938        C  0.36748633  0.65362319  0.64609371    -0.32700
N939        N  0.37330257  0.63783589  0.69882048     0.13800
C940        C  0.35726804  0.64074897  0.75263083    -0.32700
H941        H  0.34865129  0.62190484  0.78927560     0.15800
C942        C  0.26511771  0.62336832  0.64556376    -0.31600
N943        N  0.24739341  0.60937861  0.70023767     0.12600
C944        C  0.26280688  0.62234464  0.75765810    -0.31600
C945        C  0.34609394  0.73109465  0.65335627    -0.31900
N946        N  0.34882531  0.74947950  0.70562988     0.13100
H947        H  0.36393488  0.73759189  0.61510182     0.15700
C948        C  0.33227242  0.73138650  0.75770448    -0.31900
H949        H  0.32955254  0.74029007  0.80558844     0.15700
H950        H  0.25311235  0.61615626  0.80799716     0.15700
H951        H  0.37549463  0.65348459  0.59524806     0.15800
H952        H  0.25768027  0.61801562  0.59383240     0.15700
N953        N  0.05839282  0.57402324  0.93932060    -0.06500
N954        N  0.08232336  0.60165264  0.94531096    -0.58700
N955        N  0.05978928  0.57299519  0.78995016    -0.06200
N956        N  0.08530132  0.59917571  0.77892092    -0.60800
N957        N  0.03541785  0.57993701  0.79240573    -0.05800
N958        N  0.04316231  0.60965644  0.77905774    -0.58600
N959        N  0.06870721  0.55184625  0.94067328    -0.05500
N960        N  0.09856961  0.56326425  0.95374152    -0.61100
C961        C  0.10703612  0.59425753  0.95705226     0.95600
C962        C  0.07414702  0.62173310  0.76997379     0.95400
N963        N  0.52225233  0.95901126  0.78335141    -0.06700
N964        N  0.52762476  0.93733239  0.75206396    -0.59200
N965        N  0.05550155  0.97935607  0.88836660    -0.04900
N966        N  0.08216732  0.97677493  0.88766505    -0.60500
N967        N  0.03186521  0.95131294  0.88820765    -0.06800
N968        N  0.04261860  0.92938399  0.88487512    -0.59500
N969        N  0.04655234  0.48537880  0.77767999    -0.04500
N970        N  0.06837706  0.48140715  0.74308806    -0.60600
Mn971      Mn  0.05159984  0.52477735  0.84806536     1.18400
C972        C  0.55055706  0.45424282  0.71576129     0.97700
C973        C  0.07400353  0.94573654  0.88389030     0.98400
N974        N  0.45950510  0.55756858  0.85508512    -0.06800
N975        N  0.45024648  0.58043423  0.85931457    -0.63100
N976        N  0.44627548  0.02093697  0.96538860    -0.05600
N977        N  0.42167160  0.02302022  0.49567855    -0.63800
N978        N  0.97029702  0.54823469  0.96137456    -0.06300
N979        N  0.96359267  0.56889971  0.49295109    -0.63400
N980        N  0.43504951  0.53011160  0.85505174    -0.05200
N981        N  0.40912846  0.53428773  0.85800937    -0.64000
Mn982      Mn  0.00919182  0.56033995  0.88622160     1.10700
C983        C  0.41887906  0.56561470  0.86343658     0.98900
C984        C  0.43675078  0.04902450  0.53152311     0.99000
N985        N  0.45774953  0.93118143  0.94651879    -0.06300
N986        N  0.45065340  0.90145108  0.95866226    -0.61700
N987        N  0.42700075  0.96079678  0.80439546    -0.05600
N988        N  0.39800470  0.95278873  0.78762830    -0.58400
N989        N  0.43452572  0.93676521  0.80470720    -0.06900
N990        N  0.40851821  0.91075028  0.79678690    -0.61200
N991        N  0.43285431  0.93740527  0.94279325    -0.05900
N992        N  0.40788621  0.90971013  0.94714148    -0.58400
Mn993      Mn  0.48433220  0.94954618  0.85662514     1.20200
Mn994      Mn  0.43714256  0.98596813  0.89213650     1.10100
Cl995      Cl  0.49547922  0.50467297  0.87422959    -0.86400
C996        C  0.41963945  0.88755401  0.95915214     0.95900
C997        C  0.38614170  0.92170271  0.78343811     0.95700
N998        N  0.07533054  0.55508600  0.66860769    -0.06500
N999        N  0.09892010  0.55476083  0.70400490    -0.58700
N1000       N  0.04060773  0.58410311  0.56390536    -0.06200
N1001       N  0.04103697  0.60835035  0.52851373    -0.60800
N1002       N  0.03792091  0.58799127  0.62817246    -0.05800
N1003       N  0.03786654  0.61554177  0.63822351    -0.58600
N1004       N  0.07918221  0.55149773  0.60444824    -0.05500
N1005       N  0.10586471  0.54940327  0.59447134    -0.61100
C1006       C  0.11795118  0.55168403  0.65701861     0.95600
C1007       C  0.04113640  0.62854567  0.57566014     0.95400
N1008       N  0.46256543  0.00219601  0.58700637    -0.06700
N1009       N  0.43826985  0.00901504  0.10009655    -0.59200
N1010       N  0.03583481  0.98594605  0.51057683    -0.04900
N1011       N  0.06076751  0.97961470  0.51947577    -0.60500
N1012       N  0.01031464  0.95948167  0.51060501    -0.06800
N1013       N  0.01766779  0.93510247  0.51846386    -0.59500
N1014       N  0.98845721  0.52933465  0.58398089    -0.04500
N1015       N  0.98056820  0.55347665  0.09599744    -0.60600
Mn1016     Mn  0.03566356  0.53546823  0.53528829     1.18400
C1017       C  0.44757569  0.53835787  0.09608290     0.97700
C1018       C  0.04914911  0.94780120  0.52375181     0.98400
N1019       N  0.47561643  0.54239746  0.73314417    -0.06800
N1020       N  0.46905806  0.56725229  0.72478862    -0.63100
N1021       N  0.49747094  0.97250455  0.66029135    -0.05600
N1022       N  0.50611952  0.94940487  0.64953523    -0.63800
N1023       N  0.02242772  0.49921626  0.65514218    -0.06300
N1024       N  0.04713752  0.49379831  0.64138980    -0.63400
N1025       N  0.44961225  0.51640686  0.73248363    -0.05200
N1026       N  0.42511985  0.52362339  0.72450736    -0.64000
Mn1027     Mn  0.02550104  0.54529516  0.70021543     1.10700
C1028       C  0.43753183  0.55551483  0.72039422     0.98900
C1029       C  0.53777332  0.96302617  0.65121543     0.99000
N1030       N  0.44850525  0.91426727  0.61397815    -0.06300
N1031       N  0.44565807  0.88561771  0.60406230    -0.61700
N1032       N  0.40620706  0.94823883  0.63341592    -0.05600
N1033       N  0.37624627  0.93745865  0.64663279    -0.58400
N1034       N  0.41074674  0.94548255  0.56941013    -0.06900
N1035       N  0.38419815  0.93404503  0.53690255    -0.61200
N1036       N  0.44520382  0.91830156  0.67793393    -0.05900
N1037       N  0.44143991  0.89296132  0.71355332    -0.58400
Mn1038     Mn  0.46108204  0.95708219  0.54120659     1.20200
Mn1039     Mn  0.44968032  0.96734758  0.70308005     1.10100
Cl1040     Cl  0.49307720  0.50060104  0.62322625    -0.86400
C1041       C  0.44043672  0.87230281  0.66667254     0.95900
C1042       C  0.36294105  0.92863488  0.58590143     0.95700
C1043       C  0.17005137  0.83525155  0.71664927     0.29600
C1044       C  0.17248136  0.83515627  0.87269722     0.29600
C1045       C  0.16373740  0.86054328  0.75699580    -0.06600
C1046       C  0.14695117  0.80603014  0.76084193    -0.07400
C1047       C  0.20202632  0.84133209  0.75580982    -0.07300
C1048       C  0.16504504  0.86033006  0.83099305    -0.06600
C1049       C  0.15106372  0.80491409  0.83361539    -0.07400
C1050       C  0.20308135  0.84113972  0.83052909    -0.07300
C1051       C  0.16907792  0.88989191  0.84816532    -0.32700
N1052       N  0.16419942  0.90541222  0.79406929     0.13800
C1053       C  0.16451582  0.88950232  0.73850654    -0.32700
H1054       H  0.16641209  0.89960333  0.68834423     0.15800
C1055       C  0.14435857  0.77340688  0.84670977    -0.31600
N1056       N  0.12826178  0.75560841  0.79498971     0.12600
C1057       C  0.12798045  0.77551789  0.74470368    -0.31600
C1058       C  0.23426022  0.85753924  0.84641977    -0.31900
N1059       N  0.25199888  0.86522830  0.79065159     0.13100
H1060       H  0.24345403  0.86779251  0.89385140     0.15700
C1061       C  0.23292982  0.85937171  0.73681605    -0.32500
H1062       H  0.24116879  0.87097453  0.68867889     0.15700
H1063       H  0.11265025  0.76833606  0.70198443     0.15700
H1064       H  0.17431933  0.89975135  0.89768489     0.15800
H1065       H  0.15291342  0.76447826  0.88914313     0.15700
C1066       C  0.16960941  0.83505634  0.96657723     0.29600
C1067       C  0.16899887  0.83417656  0.62273801     0.29600
C1068       C  0.15699853  0.85685031  0.00590946    -0.06600
C1069       C  0.14871034  0.80469332  0.00894097    -0.07400
C1070       C  0.20049721  0.84222694  0.00850973    -0.07300
C1071       C  0.15576976  0.85542570  0.58065220    -0.06600
C1072       C  0.15094597  0.80333608  0.58268099    -0.07400
C1073       C  0.19981357  0.84221181  0.58249534    -0.07300
C1074       C  0.13270683  0.86526474  0.59804347    -0.32700
N1075       N  0.12315828  0.87621317  0.04222001     0.13800
C1076       C  0.13485452  0.86831908  0.98711108    -0.32700
H1077       H  0.12572923  0.86872758  0.93703803     0.15800
C1078       C  0.14055209  0.77212652  0.59866175    -0.31600
N1079       N  0.12504881  0.75593591  0.04650728     0.12600
C1080       C  0.12807404  0.77519818  0.99285703    -0.31600
C1081       C  0.22272922  0.83260165  0.60122142    -0.31900
N1082       N  0.24165088  0.83395589  0.04985335     0.13100
H1083       H  0.22294818  0.82050922  0.64812406     0.15700
C1084       C  0.22462125  0.83352950  0.99432839    -0.31900
H1085       H  0.22731790  0.82287037  0.94876778     0.15700
H1086       H  0.11407220  0.76852806  0.94820688     0.15700
H1087       H  0.12259427  0.86358576  0.64749527     0.15800
H1088       H  0.14658620  0.76150496  0.64209358     0.15700
C1089       C  0.07714032  0.71520388  0.59745550    -0.09600
C1090       C  0.10238773  0.72380173  0.55264948     0.06600
C1091       C  0.10747597  0.70147880  0.01391387    -0.03400
C1092       C  0.08589271  0.67034346  0.52126318    -0.07800
C1093       C  0.06043225  0.66153166  0.56573493     0.05700
C1094       C  0.05650118  0.68394231  0.60560054    -0.02800
Br1095     Br  0.02405996  0.67311553  0.67219318    -0.02500
H1096       H  0.07387369  0.73285732  0.62667701     0.09600
H1097       H  0.08914187  0.65371022  0.98882630     0.07700
Br1098     Br  0.14394867  0.71047399  0.96046604    -0.03000
C1099       C  0.28378946  0.88446333  0.51715132    -0.09600
C1100       C  0.27344229  0.85573148  0.55426311     0.06600
C1101       C  0.29302855  0.85202026  0.60499479    -0.03400
C1102       C  0.32247372  0.87615990  0.61588647    -0.07800
C1103       C  0.33202979  0.90437883  0.57797393     0.05700
C1104       C  0.31293678  0.90831967  0.52765818    -0.02800
Br1105     Br  0.32520264  0.94673772  0.47464441    -0.02500
H1106       H  0.26840677  0.88953358  0.48256778     0.09600
H1107       H  0.33791302  0.87287335  0.65333159     0.07700
Br1108     Br  0.27904564  0.81532391  0.66297815    -0.03000
C1109       C  0.10032818  0.94370490  0.52550722    -0.09600
C1110       C  0.06809287  0.92960271  0.53864840     0.06600
C1111       C  0.05466931  0.89793672  0.56212470    -0.03400
C1112       C  0.07236824  0.87995387  0.56217737    -0.07800
C1113       C  0.10379092  0.89339721  0.54236874     0.05700
C1114       C  0.11887913  0.92690549  0.02421554    -0.02800
Br1115     Br  0.16256476  0.94770316  0.00420863    -0.02500
H1116       H  0.11208245  0.96918946  0.00684928     0.09600
H1117       H  0.06180136  0.85554784  0.57882750     0.07700
Br1118     Br  0.01415156  0.87900747  0.60348587    -0.03000
C1119       C  0.12951301  0.70761833  0.74691317    -0.09600
C1120       C  0.11616019  0.72176241  0.79136353     0.06600
C1121       C  0.09012224  0.70232237  0.82999474    -0.03400
C1122       C  0.07894203  0.66971721  0.82676124    -0.07800
C1123       C  0.09185907  0.65551115  0.78157925     0.05700
C1124       C  0.11702275  0.67479732  0.74064700    -0.02800
Br1125     Br  0.13209593  0.65793118  0.66964398    -0.02500
H1126       H  0.14909051  0.72219448  0.71550165     0.09600
H1127       H  0.05873382  0.65544671  0.85717404     0.07700
Br1128     Br  0.06665267  0.71918362  0.88141338    -0.03000
C1129       C  0.30209105  0.85972338  0.79937941    -0.09600
C1130       C  0.28558718  0.87885517  0.78906478     0.06600
C1131       C  0.30219419  0.91076539  0.77423932    -0.03400
C1132       C  0.33458787  0.92347614  0.77276569    -0.07800
C1133       C  0.35160898  0.90473949  0.78312300     0.05700
C1134       C  0.33490438  0.87223743  0.79367022    -0.02800
Br1135     Br  0.35495350  0.84396052  0.79099421    -0.02500
H1136       H  0.28921411  0.83474805  0.80877048     0.09600
H1137       H  0.34636028  0.94851274  0.76232881     0.07700
Br1138     Br  0.28150839  0.93799213  0.75656078    -0.03000
C1139       C  0.10954800  0.89552200  0.80603272    -0.09600
C1140       C  0.14099129  0.91729731  0.80164317     0.06600
C1141       C  0.14946662  0.94818454  0.82045373    -0.03400
C1142       C  0.12692260  0.95686690  0.84590881    -0.07800
C1143       C  0.09578681  0.93470241  0.85450043     0.05700
C1144       C  0.08687977  0.90373881  0.83321972    -0.02800
Br1145     Br  0.04551117  0.87086254  0.84382540    -0.02500
H1146       H  0.10326724  0.87128582  0.79317618     0.09600
H1147       H  0.13432642  0.98091640  0.86143028     0.07700
Br1148     Br  0.19194744  0.97832014  0.81667852    -0.03000
C1149       C  0.37324701  0.58499229  0.68475173    -0.09600
C1150       C  0.38951720  0.61723218  0.69726672     0.06600
C1151       C  0.42128391  0.62842886  0.71495697    -0.03400
C1152       C  0.43636285  0.60807268  0.71891659    -0.07800
C1153       C  0.42015250  0.57571592  0.70828529     0.05700
C1154       C  0.38813784  0.56416812  0.69040564    -0.02800
Br1155     Br  0.36331727  0.52057814  0.67340779    -0.02500
H1156       H  0.34866515  0.57591510  0.67206640     0.09600
H1157       H  0.46075484  0.61758404  0.73354333     0.07700
Br1158     Br  0.44459105  0.67126120  0.73815241    -0.03000
C1159       C  0.39814853  0.79165302  0.74075198    -0.09600
C1160       C  0.37006718  0.78175254  0.70428181     0.06600
C1161       C  0.36618575  0.80173482  0.65432685    -0.03400
C1162       C  0.38991306  0.83091853  0.64058873    -0.07800
C1163       C  0.41792335  0.84048133  0.67650763     0.05700
C1164       C  0.42196393  0.82124184  0.72764736    -0.02800
Br1165     Br  0.46042629  0.83403299  0.77680615    -0.02500
H1166       H  0.40236096  0.77595949  0.77635458     0.09600
H1167       H  0.38621192  0.84634629  0.60288221     0.07700
Br1168     Br  0.32880022  0.78932953  0.60302882    -0.03000
C1169       C  0.20066590  0.56177659  0.67843993    -0.09600
C1170       C  0.21445379  0.59360975  0.69488363     0.06600
C1171       C  0.19645814  0.61130347  0.69585461    -0.03400
C1172       C  0.16492846  0.59692590  0.68210105    -0.07800
C1173       C  0.15106382  0.56519668  0.66722366     0.05700
C1174       C  0.16872414  0.54734207  0.66462694    -0.02800
Br1175     Br  0.14994328  0.50362795  0.64375806    -0.02500
H1176       H  0.21483510  0.54849116  0.67556941     0.09600
H1177       H  0.15098093  0.61031302  0.68388209     0.07700
Br1178     Br  0.21422502  0.65547512  0.71206914    -0.03000
C1179       C  0.39406283  0.61620355  0.97290678    -0.09600
C1180       C  0.36177323  0.59814750  0.97348586     0.06600
C1181       C  0.34965399  0.56779790  0.94863377    -0.03400
C1182       C  0.36898154  0.55761932  0.91391720    -0.07800
C1183       C  0.40072722  0.57735811  0.90470448     0.05700
C1184       C  0.41384756  0.60632606  0.93814877    -0.02800
Br1185     Br  0.45768068  0.63168740  0.44164218    -0.02500
H1186       H  0.40325209  0.63736931  0.49350377     0.09600
H1187       H  0.35858657  0.53481841  0.89095500     0.07700
Br1188     Br  0.30570319  0.54210624  0.95019875    -0.03000
C1189       C  0.40615971  0.80091732  0.44727413    -0.09600
C1190       C  0.37447030  0.78539963  0.94012549     0.06600
C1191       C  0.35638066  0.80330401  0.94085104    -0.03400
C1192       C  0.37084920  0.83632766  0.94884471    -0.07800
C1193       C  0.40359558  0.85228124  0.95354944     0.05700
C1194       C  0.42141659  0.83364084  0.95153291    -0.02800
Br1195     Br  0.46571151  0.84847322  0.46412551    -0.02500
H1196       H  0.41995869  0.78714981  0.44816970     0.09600
H1197       H  0.35651387  0.84952869  0.94973533     0.07700
Br1198     Br  0.31212562  0.78357280  0.92650622    -0.03000
C1199       C  0.19079413  0.62454716  0.90036321    -0.09600
C1200       C  0.20584078  0.64892227  0.94520335     0.06600
C1201       C  0.18742937  0.65745628  0.48932960    -0.03400
C1202       C  0.15434677  0.64101228  0.98867559    -0.07800
C1203       C  0.13989886  0.61570420  0.94612326     0.05700
C1204       C  0.15845384  0.60792664  0.90068848    -0.02800
Br1205     Br  0.14170853  0.57358101  0.83997112    -0.02500
H1206       H  0.20445526  0.61721120  0.86686640     0.09600
H1207       H  0.14071059  0.64701926  0.52466604     0.07700
Br1208     Br  0.20528938  0.69232791  0.54783455    -0.03000
C1209       C  0.81637550  0.17251362  0.02845199     0.29600
C1210       C  0.81832295  0.17222743  0.37262805     0.29600
C1211       C  0.82015007  0.14527683  0.99089200    -0.06600
C1212       C  0.78692901  0.17053981  0.98588248    -0.07400
C1213       C  0.83989444  0.20199957  0.98624868    -0.07300
C1214       C  0.82213358  0.14583470  0.41747433    -0.06600
C1215       C  0.78783076  0.17100669  0.41123144    -0.07400
C1216       C  0.84363832  0.20045573  0.41321381    -0.07300
C1217       C  0.84134992  0.13096907  0.40900691    -0.32700
N1218       N  0.84185291  0.11406410  0.46466638     0.13800
C1219       C  0.82895773  0.12214014  0.01455168    -0.32700
H1220       H  0.82826413  0.11355618  0.06592963     0.15800
C1221       C  0.75782717  0.16559180  0.39051768    -0.31600
N1222       N  0.73935278  0.16227946  0.94589593     0.12600
C1223       C  0.75672047  0.16537378  0.00294736    -0.31600
C1224       C  0.86076344  0.23137538  0.39231192    -0.31900
N1225       N  0.85881669  0.25130207  0.93989767     0.13100
H1226       H  0.87192686  0.23888041  0.34411994     0.15700
C1227       C  0.84484204  0.23320255  0.99410182    -0.31900
H1228       H  0.83407339  0.24135684  0.03187687     0.15700
H1229       H  0.74744376  0.16169665  0.05371684     0.15700
H1230       H  0.86106137  0.13985127  0.37580538     0.15800
H1231       H  0.74984618  0.16293417  0.33879473     0.15700
C1232       C  0.81845981  0.17036354  0.27805217     0.29600
C1233       C  0.81971492  0.17199106  0.12197413     0.29600
C1234       C  0.84494605  0.16381604  0.23737023    -0.06600
C1235       C  0.79088005  0.14593986  0.23673417    -0.07400
C1236       C  0.81956435  0.20031251  0.23571701    -0.07300
C1237       C  0.84678591  0.16688163  0.16270903    -0.06600
C1238       C  0.79179365  0.14679374  0.16280402    -0.07400
C1239       C  0.82306149  0.20144886  0.16193764    -0.07300
C1240       C  0.86742748  0.15435117  0.14214562    -0.32700
N1241       N  0.87348376  0.13871088  0.19484815     0.13800
C1242       C  0.85734291  0.14142174  0.24865461    -0.32700
H1243       H  0.84863839  0.12238843  0.28491256     0.15800
C1244       C  0.76496857  0.12288600  0.14216555    -0.31600
N1245       N  0.74744429  0.10864538  0.19701016     0.12600
C1246       C  0.76292649  0.12177114  0.25424137    -0.31600
C1247       C  0.84513570  0.23133082  0.14979759    -0.31900
N1248       N  0.84777911  0.24970147  0.20210812     0.13100
H1249       H  0.86297395  0.23799641  0.11151850     0.15700
C1250       C  0.83146190  0.23142061  0.25426615    -0.31900
H1251       H  0.82880404  0.24021819  0.30231658     0.15700
H1252       H  0.75333335  0.11559733  0.30466806     0.15700
H1253       H  0.87524924  0.15411515  0.09117617     0.15800
H1254       H  0.75736483  0.11765313  0.09047688     0.15700
N1255       N  0.55734287  0.07402459  0.44101141    -0.06500
N1256       N  0.58151383  0.10156005  0.44604559    -0.58700
N1257       N  0.55895194  0.07361987  0.29196678    -0.06200
N1258       N  0.58451653  0.09978468  0.28129637    -0.60800
N1259       N  0.53460851  0.08062047  0.29458442    -0.05800
N1260       N  0.54246148  0.11040403  0.28182120    -0.58600
N1261       N  0.56740015  0.05165115  0.44292626    -0.05500
N1262       N  0.59727615  0.06288362  0.45583998    -0.61100
C1263       C  0.60608161  0.09394539  0.45798663     0.95600
C1264       C  0.57345619  0.12243036  0.27287296     0.95400
N1265       N  0.02307988  0.45921584  0.28132636    -0.06700
N1266       N  0.02860986  0.43782326  0.24925069    -0.59200
N1267       N  0.55683075  0.48036474  0.39323765    -0.04900
N1268       N  0.58358705  0.47794382  0.39253479    -0.60500
N1269       N  0.53327954  0.45225841  0.39315682    -0.06800
N1270       N  0.54420233  0.43045401  0.38996593    -0.59500
N1271       N  0.54611687  0.98603653  0.27887135    -0.04500
N1272       N  0.56803769  0.98215907  0.24443588    -0.60600
Mn1273     Mn  0.55082755  0.02527586  0.34938861     1.18400
C1274       C  0.05093614  0.95477223  0.20990348     0.97700
C1275       C  0.57556857  0.44692727  0.38880372     0.98400
N1276       N  0.95964330  0.05655943  0.35012549    -0.06800
N1277       N  0.95025151  0.07938292  0.35483631    -0.63100
N1278       N  0.94653155  0.52037331  0.46386433    -0.05600
N1279       N  0.92278266  0.52392656  0.99388180    -0.63800
N1280       N  0.46919577  0.04782828  0.46356505    -0.06300
N1281       N  0.46355760  0.06944208  0.99459976    -0.63400
N1282       N  0.93528157  0.02900467  0.34892548    -0.05200
N1283       N  0.90939125  0.03333200  0.35328575    -0.64000
Mn1284     Mn  0.50805645  0.06077375  0.38800566     1.10700
C1285       C  0.91890544  0.06459559  0.35922557     0.98900
C1286       C  0.93807672  0.55017174  0.02894297     0.99000
N1287       N  0.95817757  0.43062468  0.44393938    -0.06300
N1288       N  0.95100948  0.40087467  0.45605238    -0.61700
N1289       N  0.92797037  0.46101416  0.30178158    -0.05600
N1290       N  0.89902809  0.45324988  0.28486424    -0.58400
N1291       N  0.93513247  0.43676978  0.30282204    -0.06900
N1292       N  0.90887422  0.41089297  0.29616257    -0.61200
N1293       N  0.93337119  0.43701896  0.44119146    -0.05900
N1294       N  0.90832203  0.40944749  0.44685305    -0.58400
Mn1295     Mn  0.98491759  0.44939688  0.35445918     1.20200
Mn1296     Mn  0.93766471  0.48556465  0.39037301     1.10100
Cl1297     Cl  0.99257026  0.00381057  0.36941102    -0.86400
C1298       C  0.91999423  0.38718187  0.45832457     0.95900
C1299       C  0.88674362  0.42209541  0.28212139     0.95700
N1300       N  0.57481216  0.05566437  0.17091073    -0.06500
N1301       N  0.59856350  0.05566595  0.20621629    -0.58700
N1302       N  0.54027448  0.08448458  0.06629897    -0.06200
N1303       N  0.54119605  0.10900559  0.03125121    -0.60800
N1304       N  0.53740636  0.08817875  0.13059301    -0.05800
N1305       N  0.53766903  0.11580915  0.14099934    -0.58600
N1306       N  0.57867338  0.05212514  0.10671054    -0.05500
N1307       N  0.60545444  0.05029244  0.09660680    -0.61100
C1308       C  0.61756679  0.05264543  0.15910499     0.95600
C1309       C  0.54144516  0.12914524  0.07871745     0.95400
N1310       N  0.96411651  0.50380941  0.08552982    -0.06700
N1311       N  0.93873532  0.50855096  0.59856747    -0.59200
N1312       N  0.53551229  0.48525732  0.01533257    -0.04900
N1313       N  0.56046932  0.47890989  0.02386159    -0.60500
N1314       N  0.51000809  0.45878272  0.01565437    -0.06800
N1315       N  0.51736835  0.43440639  0.02338969    -0.59500
N1316       N  0.48801715  0.02980376  0.08583700    -0.04500
N1317       N  0.47916886  0.05184076  0.59805625    -0.60600
Mn1318     Mn  0.53527768  0.03593691  0.03722142     1.18400
C1319       C  0.94784645  0.03888376  0.59099327     0.97700
C1320       C  0.54885901  0.44707166  0.02819944     0.98400
N1321       N  0.97506497  0.04241930  0.22803377    -0.06800
N1322       N  0.96850876  0.06729079  0.22001417    -0.63100
N1323       N  0.99894160  0.47417410  0.15856863    -0.05600
N1324       N  0.00744983  0.45103491  0.14745065    -0.63800
N1325       N  0.52193239  0.99966077  0.15652497    -0.06300
N1326       N  0.54671198  0.99437276  0.14272748    -0.63400
N1327       N  0.94906145  0.01639862  0.22738855    -0.05200
N1328       N  0.92456503  0.02367007  0.21964607    -0.64000
Mn1329     Mn  0.52487606  0.04549821  0.20248078     1.10700
C1330       C  0.93698716  0.05560485  0.21584485     0.98900
C1331       C  0.03908724  0.46454430  0.14944377     0.99000
N1332       N  0.94959210  0.41562049  0.11173047    -0.06300
N1333       N  0.94511092  0.38649513  0.10135096    -0.61700
N1334       N  0.90797587  0.45001685  0.13182219    -0.05600
N1335       N  0.87806034  0.43971522  0.14499209    -0.58400
N1336       N  0.91247245  0.44738653  0.06773675    -0.06900
N1337       N  0.88595148  0.43652291  0.03512223    -0.61200
N1338       N  0.94641565  0.41966557  0.17574575    -0.05900
N1339       N  0.94122158  0.39385273  0.21091530    -0.58400
Mn1340     Mn  0.96267273  0.45870897  0.03911018     1.20200
Mn1341     Mn  0.95134526  0.46883281  0.20154637     1.10100
Cl1342     Cl  0.99252158  0.00066977  0.11840677    -0.86400
C1343       C  0.93932658  0.37301700  0.16378107     0.95900
C1344       C  0.86472072  0.43118919  0.08416504     0.95700
C1345       C  0.67110231  0.33596669  0.22087979     0.29600
C1346       C  0.67302314  0.33549381  0.37696295     0.29600
C1347       C  0.66471648  0.36123625  0.26122011    -0.06600
C1348       C  0.64785793  0.30671481  0.26468360    -0.07400
C1349       C  0.70293354  0.34202771  0.26040373    -0.07300
C1350       C  0.66571685  0.36083313  0.33530001    -0.06600
C1351       C  0.65167491  0.30544038  0.33743688    -0.07400
C1352       C  0.70379453  0.34160374  0.33515745    -0.07300
C1353       C  0.66952973  0.39032573  0.35271273    -0.32700
N1354       N  0.66522441  0.40612420  0.29838616     0.13800
C1355       C  0.66570444  0.39028499  0.24277289    -0.32700
H1356       H  0.66759526  0.40034903  0.19255179     0.15800
C1357       C  0.64444569  0.27386631  0.35050223    -0.31600
N1358       N  0.62818510  0.25625638  0.29872825     0.12600
C1359       C  0.62843511  0.27637018  0.24834972    -0.31600
C1360       C  0.73494878  0.35849413  0.35147498    -0.31900
N1361       N  0.75270941  0.36687499  0.29564775     0.13100
H1362       H  0.74398427  0.36836200  0.39847169     0.15700
C1363       C  0.73369794  0.36082536  0.24182441    -0.32500
H1364       H  0.74177920  0.37275213  0.19390336     0.15700
H1365       H  0.61373569  0.26945087  0.20470351     0.15700
H1366       H  0.67432187  0.39996692  0.40248536     0.15800
H1367       H  0.65296498  0.26476891  0.39269581     0.15700
C1368       C  0.66981500  0.33488010  0.47081638     0.29600
C1369       C  0.67037751  0.33480654  0.12694475     0.29600
C1370       C  0.65682976  0.35628641  0.51038646    -0.06600
C1371       C  0.64926549  0.30419148  0.51303891    -0.07400
C1372       C  0.70073872  0.34242145  0.51263113    -0.07300
C1373       C  0.65641002  0.35530445  0.08439218    -0.06600
C1374       C  0.65303337  0.30362540  0.08749801    -0.07400
C1375       C  0.70135610  0.34353006  0.08646184    -0.07300
C1376       C  0.63370981  0.36565105  0.10176089    -0.32700
N1377       N  0.62295466  0.37549136  0.54704383     0.13800
C1378       C  0.63478807  0.36789687  0.49171194    -0.32700
H1379       H  0.62589697  0.36869618  0.44154236     0.15800
C1380       C  0.64333967  0.27254936  0.10436741    -0.31600
N1381       N  0.62517659  0.25535990  0.55107537     0.12600
C1382       C  0.62840438  0.27464753  0.49725870    -0.31600
C1383       C  0.72492292  0.33481022  0.10524917    -0.31900
N1384       N  0.74202325  0.33433838  0.55350543     0.13100
H1385       H  0.72553470  0.32298607  0.15226586     0.15700
C1386       C  0.72487090  0.33380882  0.49823307    -0.31900
H1387       H  0.72738622  0.32297294  0.45266051     0.15700
H1388       H  0.61432644  0.26797487  0.45272671     0.15700
H1389       H  0.62391220  0.36450073  0.15133724     0.15800
H1390       H  0.64926912  0.26247959  0.14880347     0.15700
C1391       C  0.58041767  0.21535187  0.10540008    -0.09600
C1392       C  0.60524931  0.22370830  0.05950840     0.06600
C1393       C  0.60705508  0.20095762  0.51687931    -0.03400
C1394       C  0.58649461  0.17058076  0.02421219    -0.07800
C1395       C  0.56151770  0.16201053  0.06992977     0.05700
C1396       C  0.55889882  0.18436848  0.11218290    -0.02800
Br1397     Br  0.52681864  0.17393558  0.17961435    -0.02500
H1398       H  0.57783106  0.23298671  0.13582911     0.09600
H1399       H  0.58823924  0.15335260  0.49024078     0.07700
Br1400     Br  0.64292168  0.21007765  0.46137097    -0.03000
C1401       C  0.78564262  0.38556914  0.01656661    -0.09600
C1402       C  0.77541215  0.35752413  0.05626529     0.06600
C1403       C  0.79529377  0.35456612  0.10712007    -0.03400
C1404       C  0.82468077  0.37896657  0.11664002    -0.07800
C1405       C  0.83405244  0.40655232  0.07656050     0.05700
C1406       C  0.81497890  0.40946970  0.02508048    -0.02800
Br1407     Br  0.82738117  0.44652071  0.96737663    -0.02500
H1408       H  0.77041551  0.39015560  0.98231169     0.09600
H1409       H  0.84022934  0.37634611  0.15463253     0.07700
Br1410     Br  0.78207153  0.31852960  0.16687215    -0.03000
C1411       C  0.60019497  0.44321262  0.02913259    -0.09600
C1412       C  0.56790255  0.42878746  0.04165437     0.06600
C1413       C  0.55456973  0.39680496  0.06309148    -0.03400
C1414       C  0.57264482  0.37918974  0.06327598    -0.07800
C1415       C  0.60428446  0.39315122  0.04532107     0.05700
C1416       C  0.61914136  0.42648133  0.53109709    -0.02800
Br1417     Br  0.66313695  0.44740453  0.51459967    -0.02500
H1418       H  0.61258393  0.46892569  0.51416245     0.09600
H1419       H  0.56216144  0.35460264  0.07855013     0.07700
Br1420     Br  0.51331651  0.37651750  0.10048617    -0.03000
C1421       C  0.62945801  0.20817849  0.25129629    -0.09600
C1422       C  0.61587079  0.22240677  0.29493066     0.06600
C1423       C  0.58957679  0.20303805  0.33298725    -0.03400
C1424       C  0.57824833  0.17042555  0.32961902    -0.07800
C1425       C  0.59127363  0.15615994  0.28483401     0.05700
C1426       C  0.61681472  0.17538191  0.24476751    -0.02800
Br1427     Br  0.63231213  0.15857369  0.17442994    -0.02500
H1428       H  0.64938329  0.22266567  0.22072142     0.09600
H1429       H  0.55786446  0.15621100  0.35960803     0.07700
Br1430     Br  0.56614858  0.21998613  0.38429694    -0.03000
C1431       C  0.80259901  0.36107088  0.30388165    -0.09600
C1432       C  0.78628813  0.38039305  0.29399703     0.06600
C1433       C  0.80301969  0.41218568  0.27806286    -0.03400
C1434       C  0.83538355  0.42454793  0.27466029    -0.07800
C1435       C  0.85218882  0.40556172  0.28418111     0.05700
C1436       C  0.83529194  0.37318188  0.29608138    -0.02800
Br1437     Br  0.85471389  0.34442035  0.29140163    -0.02500
H1438       H  0.78957806  0.33616388  0.31391906     0.09600
H1439       H  0.84728604  0.44947916  0.26331298     0.07700
Br1440     Br  0.78256538  0.43968748  0.26122547    -0.03000
C1441       C  0.61086211  0.39785455  0.30486067    -0.09600
C1442       C  0.64260497  0.41884460  0.30519237     0.06600
C1443       C  0.65142631  0.44914904  0.32844779    -0.03400
C1444       C  0.62890419  0.45771092  0.35463352    -0.07800
C1445       C  0.59738458  0.43607176  0.35882946     0.05700
C1446       C  0.58812862  0.40600803  0.33190474    -0.02800
Br1447     Br  0.54594225  0.37419597  0.33299156    -0.02500
H1448       H  0.60420093  0.37408357  0.28814491     0.09600
H1449       H  0.63650135  0.48116613  0.37400142     0.07700
Br1450     Br  0.69419268  0.47860584  0.32889097    -0.03000
C1451       C  0.87265822  0.08544289  0.18375768    -0.09600
C1452       C  0.88945284  0.11788987  0.19295858     0.06600
C1453       C  0.92154027  0.12912485  0.20757555    -0.03400
C1454       C  0.93634997  0.10850290  0.21213255    -0.07800
C1455       C  0.91967237  0.07595784  0.20425040     0.05700
C1456       C  0.88734592  0.06445076  0.18933109    -0.02800
Br1457     Br  0.86170168  0.02066896  0.17672099    -0.02500
H1458       H  0.84783286  0.07636607  0.17361035     0.09600
H1459       H  0.96097768  0.11802711  0.22468620     0.07700
Br1460     Br  0.94564200  0.17246577  0.22557441    -0.03000
C1461       C  0.89646612  0.29252168  0.23881282    -0.09600
C1462       C  0.86881427  0.28213708  0.20075412     0.06600
C1463       C  0.86511408  0.30199862  0.15017096    -0.03400
C1464       C  0.88882947  0.33132325  0.13672702    -0.07800
C1465       C  0.91654440  0.34122439  0.17386652     0.05700
C1466       C  0.92012916  0.32228390  0.22632081    -0.02800
Br1467     Br  0.95770717  0.33586510  0.27893639    -0.02500
H1468       H  0.90048175  0.27713248  0.27553138     0.09600
H1469       H  0.88531903  0.34661145  0.09841375     0.07700
Br1470     Br  0.82780689  0.28931771  0.09832562    -0.03000
C1471       C  0.69978508  0.06114201  0.17994303    -0.09600
C1472       C  0.71442942  0.09338176  0.19245144     0.06600
C1473       C  0.69704101  0.11169961  0.19227303    -0.03400
C1474       C  0.66530389  0.09764857  0.18066952    -0.07800
C1475       C  0.65065892  0.06562943  0.16914678     0.05700
C1476       C  0.66761360  0.04704097  0.16840954    -0.02800
Br1477     Br  0.64743357  0.00277326  0.15326714    -0.02500
H1478       H  0.71340515  0.04725623  0.17855578     0.09600
H1479       H  0.65188248  0.11156300  0.18079391     0.07700
Br1480     Br  0.71595452  0.15619954  0.20454818    -0.03000
C1481       C  0.89397038  0.11651278  0.46546135    -0.09600
C1482       C  0.86179388  0.09808933  0.46878896     0.06600
C1483       C  0.84984816  0.06719567  0.44693627    -0.03400
C1484       C  0.86904517  0.05669385  0.41210775    -0.07800
C1485       C  0.90058532  0.07662937  0.40012054     0.05700
C1486       C  0.91358416  0.10634187  0.43074929    -0.02800
Br1487     Br  0.95680469  0.13057164  0.94046301    -0.02500
H1488       H  0.90219218  0.13596594  0.99199704     0.09600
H1489       H  0.85874511  0.03333434  0.39173391     0.07700
Br1490     Br  0.80623425  0.04061447  0.45461044    -0.03000
C1491       C  0.90501950  0.30046101  0.94736327    -0.09600
C1492       C  0.87405688  0.28507890  0.43893181     0.06600
C1493       C  0.85622502  0.30323580  0.43950234    -0.03400
C1494       C  0.87091476  0.33621200  0.44809136    -0.07800
C1495       C  0.90364713  0.35187549  0.45376928     0.05700
C1496       C  0.92118416  0.33293425  0.45305067    -0.02800
Br1497     Br  0.96434884  0.34728936  0.96989533    -0.02500
H1498       H  0.91859097  0.28647024  0.94951533     0.09600
H1499       H  0.85677422  0.34962367  0.44847044     0.07700
Br1500     Br  0.81201133  0.28387464  0.42442138    -0.03000
C1501       C  0.68961305  0.12323631  0.39946392    -0.09600
C1502       C  0.70494979  0.14810150  0.44293127     0.06600
C1503       C  0.68718253  0.15788929  0.98813275    -0.03400
C1504       C  0.65378416  0.14073222  0.48748899    -0.07800
C1505       C  0.63900152  0.11502330  0.44610939     0.05700
C1506       C  0.65726102  0.10664967  0.40093019    -0.02800
Br1507     Br  0.64019764  0.07163359  0.34194814    -0.02500
H1508       H  0.70308709  0.11554883  0.36618787     0.09600
H1509       H  0.64079194  0.14722517  0.02597276     0.07700
Br1510     Br  0.70553013  0.19323692  0.04526130    -0.03000
C1511       C  0.81582727  0.17226058  0.52839437     0.29600
C1512       C  0.81838059  0.17228236  0.87241988     0.29600
C1513       C  0.81907911  0.14472717  0.49103885    -0.06600
C1514       C  0.78660302  0.17071966  0.48555811    -0.07400
C1515       C  0.83982648  0.20160748  0.48653553    -0.07300
C1516       C  0.82277497  0.14630224  0.91724467    -0.06600
C1517       C  0.78795682  0.17075541  0.91154080    -0.07400
C1518       C  0.84353880  0.20083223  0.91275280    -0.07300
C1519       C  0.84142216  0.13101944  0.90738380    -0.32700
N1520       N  0.84205589  0.11404957  0.96269060     0.13800
C1521       C  0.82785290  0.12171660  0.51545295    -0.32700
H1522       H  0.82700059  0.11334874  0.56704241     0.15800
C1523       C  0.75811019  0.16587642  0.89108847    -0.31600
N1524       N  0.73887116  0.16167988  0.44514463     0.12600
C1525       C  0.75619790  0.16499870  0.50234118    -0.31600
C1526       C  0.85994542  0.23185733  0.89176601    -0.31900
N1527       N  0.86005491  0.25100892  0.44045649     0.13100
H1528       H  0.87109828  0.23954141  0.84371913     0.15700
C1529       C  0.84547921  0.23300840  0.49436162    -0.31900
H1530       H  0.83481266  0.24150172  0.53170061     0.15700
H1531       H  0.74676881  0.16100598  0.55301692     0.15700
H1532       H  0.86060095  0.13920856  0.87287347     0.15800
H1533       H  0.75009763  0.16339283  0.83940165     0.15700
C1534       C  0.81807452  0.16993800  0.77778882     0.29600
C1535       C  0.81913777  0.17153684  0.62180461     0.29600
C1536       C  0.84450812  0.16334290  0.73680831    -0.06600
C1537       C  0.79046968  0.14535299  0.73666568    -0.07400
C1538       C  0.81877060  0.19967143  0.73545758    -0.07300
C1539       C  0.84642873  0.16671894  0.66221272    -0.06600
C1540       C  0.79133165  0.14618530  0.66269262    -0.07400
C1541       C  0.82231089  0.20084469  0.66174055    -0.07300
C1542       C  0.86682788  0.15402446  0.64109919    -0.32700
N1543       N  0.87216859  0.13744938  0.69291323     0.13800
C1544       C  0.85600475  0.14012215  0.74686010    -0.32700
H1545       H  0.84682324  0.12092923  0.78271024     0.15800
C1546       C  0.76454214  0.12224555  0.64206904    -0.31600
N1547       N  0.74703508  0.10799688  0.69692090     0.12600
C1548       C  0.76251335  0.12116828  0.75418246    -0.31600
C1549       C  0.84450303  0.23063104  0.64988436    -0.31900
N1550       N  0.84695634  0.24893866  0.70210236     0.13100
H1551       H  0.86262853  0.23718204  0.61227637     0.15700
C1552       C  0.83043206  0.23070645  0.75401330    -0.31900
H1553       H  0.82741904  0.23947625  0.80181609     0.15700
H1554       H  0.75288299  0.11510488  0.80460725     0.15700
H1555       H  0.87459307  0.15399093  0.58997544     0.15800
H1556       H  0.75691718  0.11706144  0.59037245     0.15700
N1557       N  0.55818190  0.07433443  0.94142427    -0.06500
N1558       N  0.58218492  0.10190841  0.94731638    -0.58700
N1559       N  0.56008052  0.07319804  0.79169260    -0.06200
N1560       N  0.58580415  0.09914503  0.78069498    -0.60800
N1561       N  0.53589293  0.08044577  0.79368126    -0.05800
N1562       N  0.54404164  0.11021866  0.78008974    -0.58600
N1563       N  0.56836019  0.05205987  0.94337034    -0.05500
N1564       N  0.59817319  0.06338854  0.95700824    -0.61100
C1565       C  0.60678247  0.09442041  0.95983513     0.95600
C1566       C  0.57505155  0.12193772  0.77117718     0.95400
N1567       N  0.02175572  0.45836893  0.78174152    -0.06700
N1568       N  0.02695391  0.43661290  0.75033605    -0.59200
N1569       N  0.55607432  0.48069877  0.89308062    -0.04900
N1570       N  0.58273150  0.47805110  0.89240879    -0.60500
N1571       N  0.53231552  0.45267668  0.89271046    -0.06800
N1572       N  0.54308633  0.43074010  0.88929267    -0.59500
N1573       N  0.54692746  0.98611012  0.77921418    -0.04500
N1574       N  0.56878244  0.98233133  0.74432052    -0.60600
Mn1575     Mn  0.55162079  0.02519741  0.85020067     1.18400
C1576       C  0.04980677  0.95323540  0.70953714     0.97700
C1577       C  0.57450845  0.44701649  0.88854288     0.98400
N1578       N  0.95965609  0.05564059  0.84971963    -0.06800
N1579       N  0.95027662  0.07852066  0.85382858    -0.63100
N1580       N  0.94608789  0.52045506  0.96406255    -0.05600
N1581       N  0.92312370  0.52376829  0.49338619    -0.63800
N1582       N  0.47058073  0.04864489  0.96318572    -0.06300
N1583       N  0.46193740  0.06831711  0.49556316    -0.63400
N1584       N  0.93532455  0.02805507  0.84876038    -0.05200
N1585       N  0.90944733  0.03235162  0.85297047    -0.64000
Mn1586     Mn  0.50928588  0.06090707  0.88735775     1.10700
C1587       C  0.91894053  0.06363429  0.85802937     0.98900
C1588       C  0.93826774  0.54989600  0.52885882     0.99000
N1589       N  0.95767521  0.43062720  0.94552382    -0.06300
N1590       N  0.95029796  0.40082158  0.95751658    -0.61700
N1591       N  0.92742894  0.46074516  0.80234110    -0.05600
N1592       N  0.89853233  0.45299539  0.78499398    -0.58400
N1593       N  0.93458380  0.43649399  0.80357524    -0.06900
N1594       N  0.90835541  0.41063303  0.79657338    -0.61200
N1595       N  0.93291763  0.43711157  0.94206130    -0.05900
N1596       N  0.90777561  0.40960735  0.94712483    -0.58400
Mn1597     Mn  0.98420769  0.44905463  0.85572360     1.20200
Mn1598     Mn  0.93716441  0.48549180  0.89077520     1.10100
Cl1599     Cl  0.99233531  0.00274163  0.86938421    -0.86400
C1600       C  0.91924874  0.38726752  0.95919404     0.95900
C1601       C  0.88628708  0.42184510  0.78199904     0.95700
N1602       N  0.57450756  0.05533175  0.66977578    -0.06500
N1603       N  0.59824804  0.05516366  0.70489231    -0.58700
N1604       N  0.53939201  0.08372667  0.56563561    -0.06200
N1605       N  0.54054453  0.10832706  0.53056197    -0.60800
N1606       N  0.53665686  0.08748674  0.62993616    -0.05800
N1607       N  0.53725901  0.11524981  0.64034421    -0.58600
N1608       N  0.57827506  0.05179520  0.60552464    -0.05500
N1609       N  0.60501610  0.04987266  0.59523540    -0.61100
C1610       C  0.61719692  0.05216244  0.65767260     0.95600
C1611       C  0.54095790  0.12852568  0.57800134     0.95400
N1612       N  0.96351965  0.50299023  0.58546010    -0.06700
N1613       N  0.93918440  0.50910375  0.09868672    -0.59200
N1614       N  0.53681683  0.48640454  0.51521345    -0.04900
N1615       N  0.56182761  0.48021862  0.52420060    -0.60500
N1616       N  0.51137694  0.45987559  0.51557254    -0.06800
N1617       N  0.51884057  0.43558625  0.52379292    -0.59500
N1618       N  0.48736579  0.02865560  0.58549900    -0.04500
N1619       N  0.47999468  0.05313013  0.09832073    -0.60600
Mn1620     Mn  0.53460202  0.03525271  0.53670253     1.18400
C1621       C  0.94752852  0.03867437  0.09105274     0.97700
C1622       C  0.55031572  0.44842238  0.52889996     0.98400
N1623       N  0.97451210  0.04211017  0.72745836    -0.06800
N1624       N  0.96759622  0.06680154  0.71928961    -0.63100
N1625       N  0.99772796  0.47273331  0.65840158    -0.05600
N1626       N  0.00596783  0.44936599  0.64766268    -0.63800
N1627       N  0.52195013  0.99916488  0.65679250    -0.06300
N1628       N  0.54685590  0.99412509  0.64278161    -0.63400
N1629       N  0.94865671  0.01594201  0.72700067    -0.05200
N1630       N  0.92397310  0.02285140  0.71923763    -0.64000
Mn1631     Mn  0.52454567  0.04495897  0.70215767     1.10700
C1632       C  0.93599382  0.05473794  0.71541270     0.98900
C1633       C  0.03761150  0.46261172  0.64968107     0.99000
N1634       N  0.94805414  0.41471074  0.61141084    -0.06300
N1635       N  0.94363458  0.38560570  0.60108318    -0.61700
N1636       N  0.90695493  0.44958762  0.63118622    -0.05600
N1637       N  0.87707490  0.43926066  0.64463893    -0.58400
N1638       N  0.91133565  0.44665010  0.56714518    -0.06900
N1639       N  0.88471261  0.43537421  0.53483758    -0.61200
N1640       N  0.94484746  0.41879045  0.67540460    -0.05900
N1641       N  0.93970509  0.39301079  0.71063631    -0.58400
Mn1642     Mn  0.96159693  0.45777421  0.53882405     1.20200
Mn1643     Mn  0.95027236  0.46810458  0.70118572     1.10100
Cl1644     Cl  0.99222547  0.00027360  0.61842626    -0.86400
C1645       C  0.93788361  0.37219091  0.66354470     0.95900
C1646       C  0.86360123  0.43038171  0.58408407     0.95700
C1647       C  0.67039658  0.33535627  0.72094611     0.29600
C1648       C  0.67297453  0.33493726  0.87696439     0.29600
C1649       C  0.66407236  0.36062243  0.76181086    -0.06600
C1650       C  0.64740541  0.30600622  0.76500738    -0.07400
C1651       C  0.70238601  0.34146533  0.75976932    -0.07300
C1652       C  0.66547739  0.36020637  0.83580255    -0.06600
C1653       C  0.65148439  0.30478267  0.83774854    -0.07400
C1654       C  0.70353012  0.34107933  0.83443832    -0.07300
C1655       C  0.66927336  0.38961184  0.85377528    -0.32700
N1656       N  0.66432765  0.40532680  0.80013991     0.13800
C1657       C  0.66455460  0.38960203  0.74410053    -0.32700
H1658       H  0.66620011  0.39985087  0.69415380     0.15800
C1659       C  0.64461480  0.27323585  0.85073819    -0.31600
N1660       N  0.62851337  0.25549632  0.79894827     0.12600
C1661       C  0.62841107  0.27551804  0.74867626    -0.31600
C1662       C  0.73470027  0.35812603  0.85025827    -0.31900
N1663       N  0.75227621  0.36635301  0.79408318     0.13100
H1664       H  0.74360643  0.36828664  0.89615339     0.15700
C1665       C  0.73310115  0.36018649  0.74058558    -0.32500
H1666       H  0.74103990  0.37197132  0.69244477     0.15700
H1667       H  0.61342128  0.26844684  0.70550350     0.15700
H1668       H  0.67439939  0.39921327  0.90355234     0.15800
H1669       H  0.65337979  0.26426512  0.89274595     0.15700
C1670       C  0.67026253  0.33470508  0.97082944     0.29600
C1671       C  0.66952125  0.33421910  0.62698190     0.29600
C1672       C  0.65673870  0.35575561  0.00996738    -0.06600
C1673       C  0.65042018  0.30409512  0.01377774    -0.07400
C1674       C  0.70145898  0.34307204  0.01225359    -0.07300
C1675       C  0.65623889  0.35535099  0.58487807    -0.06600
C1676       C  0.65165880  0.30331866  0.58681581    -0.07400
C1677       C  0.70042398  0.34249255  0.58678388    -0.07300
C1678       C  0.63346774  0.36549768  0.60249200    -0.32700
N1679       N  0.62275039  0.37494090  0.04591296     0.13800
C1680       C  0.63440074  0.36690762  0.99092916    -0.32700
H1681       H  0.62527158  0.36717306  0.94078658     0.15800
C1682       C  0.64175242  0.27211733  0.60275586    -0.31600
N1683       N  0.62670550  0.25549928  0.05310148     0.12600
C1684       C  0.62970810  0.27444049  0.99878409    -0.31600
C1685       C  0.72357932  0.33319947  0.60549497    -0.31900
N1686       N  0.74309571  0.33553817  0.05302801     0.13100
H1687       H  0.72400470  0.32121350  0.65243747     0.15700
C1688       C  0.72578309  0.33470928  0.99789319    -0.31900
H1689       H  0.72828954  0.32370640  0.95253423     0.15700
H1690       H  0.61545812  0.26749530  0.95456716     0.15700
H1691       H  0.62329917  0.36371796  0.65191031     0.15800
H1692       H  0.64779908  0.26176056  0.64656121     0.15700
C1693       C  0.57933780  0.21483405  0.60409246    -0.09600
C1694       C  0.60369856  0.22349871  0.55686320     0.06600
C1695       C  0.60873215  0.20107362  0.02018264    -0.03400
C1696       C  0.58504373  0.17034851  0.52141796    -0.07800
C1697       C  0.56063688  0.16148937  0.56868287     0.05700
C1698       C  0.55823652  0.18371004  0.61169246    -0.02800
Br1699     Br  0.52713074  0.17286674  0.68159739    -0.02500
H1700       H  0.57695682  0.23232441  0.63535436     0.09600
H1701       H  0.58978906  0.15349941  0.99353557     0.07700
Br1702     Br  0.64457655  0.21029309  0.96454920    -0.03000
C1703       C  0.78361526  0.38562294  0.52022332    -0.09600
C1704       C  0.77404743  0.35696784  0.55759706     0.06600
C1705       C  0.79426019  0.35372776  0.60729369    -0.03400
C1706       C  0.82378828  0.37799612  0.61618611    -0.07800
C1707       C  0.83276504  0.40592677  0.57740802     0.05700
C1708       C  0.81290757  0.40959985  0.52869860    -0.02800
Br1709     Br  0.82428548  0.44781026  0.47530986    -0.02500
H1710       H  0.76775335  0.39048775  0.48752205     0.09600
H1711       H  0.83970088  0.37507577  0.65289546     0.07700
Br1712     Br  0.78103634  0.31767418  0.66699694    -0.03000
C1713       C  0.60141786  0.44433144  0.52945062    -0.09600
C1714       C  0.56933921  0.43038166  0.54413840     0.06600
C1715       C  0.55610947  0.39896717  0.56924821    -0.03400
C1716       C  0.57379287  0.38096772  0.56932168    -0.07800
C1717       C  0.60493806  0.39412071  0.54742830     0.05700
C1718       C  0.61830204  0.42571027  0.03117489    -0.02800
Br1719     Br  0.66247413  0.44722211  0.01764167    -0.02500
H1720       H  0.61129760  0.46798916  0.01541699     0.09600
H1721       H  0.56339004  0.35673723  0.58721991     0.07700
Br1722     Br  0.51577787  0.38035698  0.61173367    -0.03000
C1723       C  0.62992939  0.20789283  0.74902302    -0.09600
C1724       C  0.61678833  0.22166179  0.79491315     0.06600
C1725       C  0.59149710  0.20179931  0.83505795    -0.03400
C1726       C  0.58073663  0.16926150  0.83131696    -0.07800
C1727       C  0.59308749  0.15550294  0.78396653     0.05700
C1728       C  0.61769516  0.17512063  0.74209781    -0.02800
Br1729     Br  0.63252475  0.15876977  0.66961192    -0.02500
H1730       H  0.64918492  0.22269261  0.71713648     0.09600
H1731       H  0.56106215  0.15465398  0.86277477     0.07700
Br1732     Br  0.56816913  0.21776619  0.88930431    -0.03000
C1733       C  0.80219832  0.36063919  0.80214940    -0.09600
C1734       C  0.78584406  0.37991130  0.79223114     0.06600
C1735       C  0.80253758  0.41175492  0.77676934    -0.03400
C1736       C  0.83490892  0.42420205  0.77373558    -0.07800
C1737       C  0.85174735  0.40524785  0.78324929     0.05700
C1738       C  0.83489339  0.37282416  0.79458931    -0.02800
Br1739     Br  0.85437672  0.34412718  0.78953358    -0.02500
H1740       H  0.78921448  0.33571831  0.81213399     0.09600
H1741       H  0.84679059  0.44918847  0.76287980     0.07700
Br1742     Br  0.78205365  0.43927797  0.76077149    -0.03000
C1743       C  0.60990576  0.39654802  0.81071373    -0.09600
C1744       C  0.64155938  0.41778514  0.80847283     0.06600
C1745       C  0.65041951  0.44840941  0.82985069    -0.03400
C1746       C  0.62790842  0.45739796  0.85466358    -0.07800
C1747       C  0.59642210  0.43574626  0.86034445     0.05700
C1748       C  0.58727838  0.40501388  0.83729235    -0.02800
Br1749     Br  0.54545885  0.37267625  0.84409314    -0.02500
H1750       H  0.60329334  0.37245747  0.79627987     0.09600
H1751       H  0.63550039  0.48122327  0.87184435     0.07700
Br1752     Br  0.69325124  0.47772332  0.82993971    -0.03000
C1753       C  0.87025774  0.08344928  0.70149916    -0.09600
C1754       C  0.88735935  0.11590978  0.68952965     0.06600
C1755       C  0.91992242  0.12714165  0.68060799    -0.03400
C1756       C  0.93492550  0.10665205  0.68708745    -0.07800
C1757       C  0.91805685  0.07434854  0.70135377     0.05700
C1758       C  0.88507410  0.06260936  0.70602880    -0.02800
Br1759     Br  0.85864769  0.01880849  0.72043588    -0.02500
H1760       H  0.84517138  0.07432279  0.70800620     0.09600
H1761       H  0.96012635  0.11631389  0.68218824     0.07700
Br1762     Br  0.94507162  0.17079304  0.66364344    -0.03000
C1763       C  0.89586133  0.29154433  0.73763835    -0.09600
C1764       C  0.86787700  0.28131669  0.70081574     0.06600
C1765       C  0.86374252  0.30117106  0.65088682    -0.03400
C1766       C  0.88728642  0.33056816  0.63733500    -0.07800
C1767       C  0.91524451  0.34042154  0.67365554     0.05700
C1768       C  0.91933709  0.32136453  0.72518670    -0.02800
Br1769     Br  0.95727640  0.33484155  0.77671823    -0.02500
H1770       H  0.90029321  0.27599483  0.77317844     0.09600
H1771       H  0.88351384  0.34589655  0.59949815     0.07700
Br1772     Br  0.82626279  0.28807148  0.59941600    -0.03000
C1773       C  0.69957810  0.06076104  0.67625692    -0.09600
C1774       C  0.71402020  0.09264862  0.69217425     0.06600
C1775       C  0.69647302  0.11077541  0.69433152    -0.03400
C1776       C  0.66475060  0.09679718  0.68256867    -0.07800
C1777       C  0.65029840  0.06509331  0.66778733     0.05700
C1778       C  0.66745653  0.04677523  0.66401003    -0.02800
Br1779     Br  0.64763443  0.00299049  0.64394130    -0.02500
H1780       H  0.71333876  0.04708534  0.67265152     0.09600
H1781       H  0.65119143  0.11057628  0.68512702     0.07700
Br1782     Br  0.71515289  0.15510271  0.70879938    -0.03000
C1783       C  0.89283640  0.11321829  0.96876269    -0.09600
C1784       C  0.86044918  0.09646839  0.96408120     0.06600
C1785       C  0.84810728  0.06748091  0.93257064    -0.03400
C1786       C  0.86782326  0.05723145  0.89928718    -0.07800
C1787       C  0.90011875  0.07565069  0.89693645     0.05700
C1788       C  0.91295655  0.10340117  0.93484821    -0.02800
Br1789     Br  0.95675015  0.13572294  0.42449464    -0.02500
H1790       H  0.90304657  0.14050002  0.48230782     0.09600
H1791       H  0.85753664  0.03547887  0.87226028     0.07700
Br1792     Br  0.80391578  0.04415948  0.92367667    -0.03000
C1793       C  0.90628388  0.30042972  0.44564759    -0.09600
C1794       C  0.87288282  0.28534415  0.93884316     0.06600
C1795       C  0.85517266  0.30364282  0.93859337    -0.03400
C1796       C  0.86999800  0.33661223  0.94722686    -0.07800
C1797       C  0.90268285  0.35201695  0.95461546     0.05700
C1798       C  0.91998563  0.33286856  0.95568469    -0.02800
Br1799     Br  0.96587255  0.34781698  0.46248120    -0.02500
H1800       H  0.92002354  0.28660128  0.44665857     0.09600
H1801       H  0.85600505  0.35018863  0.94673629     0.07700
Br1802     Br  0.81090448  0.28444106  0.92399402    -0.03000
C1803       C  0.69005075  0.12428462  0.90000927    -0.09600
C1804       C  0.70546842  0.14891338  0.94391558     0.06600
C1805       C  0.68651763  0.15731708  0.48626428    -0.03400
C1806       C  0.65446804  0.14115300  0.98990471    -0.07800
C1807       C  0.63962022  0.11565309  0.94794503     0.05700
C1808       C  0.65776229  0.10760597  0.90186385    -0.02800
Br1809     Br  0.64074319  0.07270243  0.84252914    -0.02500
H1810       H  0.70343390  0.11674213  0.86618810     0.09600
H1811       H  0.64001192  0.14709085  0.52274858     0.07700
Br1812     Br  0.70464998  0.19276764  0.54311421    -0.03000
C1813       C  0.81572959  0.67150577  0.02809943     0.29600
C1814       C  0.81798457  0.67124868  0.37237879     0.29600
C1815       C  0.81927894  0.64406898  0.99069066    -0.06600
C1816       C  0.78630640  0.66958478  0.98564053    -0.07400
C1817       C  0.83943757  0.70087524  0.98571039    -0.07300
C1818       C  0.82250767  0.64522082  0.41723510    -0.06600
C1819       C  0.78737501  0.66936833  0.41146902    -0.07400
C1820       C  0.84292510  0.69981502  0.41280050    -0.07300
C1821       C  0.84125559  0.62992669  0.40784131    -0.32700
N1822       N  0.84201190  0.61313167  0.46347698     0.13800
C1823       C  0.82932910  0.62190200  0.01471726    -0.32700
H1824       H  0.82877047  0.61340830  0.06611778     0.15800
C1825       C  0.75735535  0.66394639  0.39116005    -0.31600
N1826       N  0.73838703  0.66016340  0.94609457     0.12600
C1827       C  0.75597106  0.66382884  0.00295026    -0.31600
C1828       C  0.85936799  0.73079085  0.39163470    -0.31900
N1829       N  0.85929598  0.75004001  0.93857099     0.13100
H1830       H  0.87045899  0.73836039  0.34345958     0.15700
C1831       C  0.84497746  0.73226457  0.99294379    -0.31900
H1832       H  0.83422982  0.74081438  0.02993336     0.15700
H1833       H  0.74678118  0.66012805  0.05381013     0.15700
H1834       H  0.86054396  0.63821179  0.37354649     0.15800
H1835       H  0.74933304  0.66150410  0.33957272     0.15700
C1836       C  0.81794979  0.66944355  0.27766626     0.29600
C1837       C  0.81905584  0.67100866  0.12160094     0.29600
C1838       C  0.84468297  0.66343903  0.23680878    -0.06600
C1839       C  0.79062676  0.64463767  0.23652525    -0.07400
C1840       C  0.81830958  0.69911188  0.23523207    -0.07300
C1841       C  0.84662385  0.66680690  0.16220675    -0.06600
C1842       C  0.79147619  0.64543446  0.16255875    -0.07400
C1843       C  0.82161211  0.70017727  0.16138208    -0.07300
C1844       C  0.86741402  0.65456510  0.14135428    -0.32700
N1845       N  0.87297380  0.63822473  0.19333619     0.13800
C1846       C  0.85658681  0.64061041  0.24709650    -0.32700
H1847       H  0.84728915  0.62124288  0.28248073     0.15800
C1848       C  0.76449399  0.62174283  0.14204044    -0.31600
N1849       N  0.74694925  0.60778346  0.19698479     0.12600
C1850       C  0.76259272  0.62069619  0.25417327    -0.31600
C1851       C  0.84321945  0.73013873  0.14879625    -0.31900
N1852       N  0.84566072  0.74857047  0.20076312     0.13100
H1853       H  0.86140178  0.73667550  0.11134546     0.15700
C1854       C  0.82979755  0.73026892  0.25336155    -0.31900
H1855       H  0.82725934  0.73910013  0.30143151     0.15700
H1856       H  0.75297630  0.61469037  0.30460021     0.15700
H1857       H  0.87533874  0.65465846  0.09032400     0.15800
H1858       H  0.75675693  0.61658453  0.09042158     0.15700
N1859       N  0.55725095  0.57279832  0.44316271    -0.06500
N1860       N  0.58134319  0.60037806  0.44827262    -0.58700
N1861       N  0.55917426  0.57213236  0.29399542    -0.06200
N1862       N  0.58479271  0.59821616  0.28313449    -0.60800
N1863       N  0.53489261  0.57923278  0.29617265    -0.05800
N1864       N  0.54286860  0.60902810  0.28310271    -0.58600
N1865       N  0.56735059  0.55046134  0.44550859    -0.05500
N1866       N  0.59715832  0.56175313  0.45913529    -0.61100
C1867       C  0.60589757  0.59282457  0.46094918     0.95600
C1868       C  0.57386089  0.62090336  0.27397469     0.95400
N1869       N  0.02120247  0.95828651  0.28045010    -0.06700
N1870       N  0.02675469  0.93667005  0.24933532    -0.59200
N1871       N  0.55694061  0.98186913  0.39047205    -0.04900
N1872       N  0.58363557  0.97927752  0.38960909    -0.60500
N1873       N  0.53327927  0.95383772  0.39057421    -0.06800
N1874       N  0.54400861  0.93191116  0.38732755    -0.59500
N1875       N  0.54615492  0.48446774  0.28133170    -0.04500
N1876       N  0.56799484  0.48068944  0.24637584    -0.60600
Mn1877     Mn  0.55092726  0.52382005  0.35189898     1.18400
C1878       C  0.05269908  0.45622115  0.20987215     0.97700
C1879       C  0.57538715  0.94819541  0.38629507     0.98400
N1880       N  0.96159344  0.55735100  0.35080101    -0.06800
N1881       N  0.95205109  0.58011375  0.35518576    -0.63100
N1882       N  0.94487771  0.01974529  0.46302005    -0.05600
N1883       N  0.92131433  0.02192604  0.99320214    -0.63800
N1884       N  0.46981850  0.54669211  0.46549920    -0.06300
N1885       N  0.46190494  0.56937681  0.00017529    -0.63400
N1886       N  0.93734055  0.52970933  0.34963993    -0.05200
N1887       N  0.91139932  0.53387265  0.35373135    -0.64000
Mn1888     Mn  0.50828834  0.55922490  0.38933384     1.10700
C1889       C  0.92070654  0.56510035  0.35931496     0.98900
C1890       C  0.93653733  0.04815731  0.02834995     0.99000
N1891       N  0.95660252  0.92998534  0.44305466    -0.06300
N1892       N  0.94937986  0.90019351  0.45489480    -0.61700
N1893       N  0.92609900  0.96012849  0.30107205    -0.05600
N1894       N  0.89716276  0.95220069  0.28389655    -0.58400
N1895       N  0.93356187  0.93606406  0.30152723    -0.06900
N1896       N  0.90752340  0.91009281  0.29369173    -0.61200
N1897       N  0.93178265  0.93637086  0.43990481    -0.05900
N1898       N  0.90673866  0.90877337  0.44474116    -0.58400
Mn1899     Mn  0.98327173  0.94872064  0.35360819     1.20200
Mn1900     Mn  0.93585074  0.98487500  0.38943316     1.10100
Cl1901     Cl  0.99438085  0.50451974  0.37061318    -0.86400
C1902       C  0.91834504  0.88651433  0.45665525     0.95900
C1903       C  0.88523976  0.92110369  0.27984150     0.95700
N1904       N  0.57385608  0.55429373  0.17247205    -0.06500
N1905       N  0.59798950  0.55511790  0.20746484    -0.58700
N1906       N  0.53911599  0.58272414  0.06835808    -0.06200
N1907       N  0.54029420  0.60735820  0.03331108    -0.60800
N1908       N  0.53631624  0.58649258  0.13264784    -0.05800
N1909       N  0.53688926  0.61426122  0.14302015    -0.58600
N1910       N  0.57763814  0.55066403  0.10830140    -0.05500
N1911       N  0.60472787  0.54958806  0.09781165    -0.61100
C1912       C  0.61710201  0.55258204  0.16009938     0.95600
C1913       C  0.54063613  0.62755914  0.08070023     0.95400
N1914       N  0.96259906  0.00197328  0.08485107    -0.06700
N1915       N  0.93760143  0.00730505  0.59732338    -0.59200
N1916       N  0.53646659  0.98721613  0.01283698    -0.04900
N1917       N  0.56125061  0.98062595  0.02201162    -0.60500
N1918       N  0.51083971  0.96088501  0.01299316    -0.06800
N1919       N  0.51792546  0.93635913  0.02108849    -0.59500
N1920       N  0.48695463  0.52760069  0.08732666    -0.04500
N1921       N  0.47981631  0.55168325  0.60042548    -0.60600
Mn1922     Mn  0.53418026  0.53399992  0.03934193     1.18400
C1923       C  0.94899108  0.54008749  0.59152908     0.97700
C1924       C  0.54937682  0.94877354  0.02647113     0.98400
N1925       N  0.97649149  0.54429691  0.22811104    -0.06800
N1926       N  0.96936910  0.56885422  0.22008836    -0.63100
N1927       N  0.99721312  0.97218094  0.15724093    -0.05600
N1928       N  0.00580213  0.94905324  0.14642463    -0.63800
N1929       N  0.52141799  0.49804142  0.15926849    -0.06300
N1930       N  0.54626668  0.49291290  0.14512842    -0.63400
N1931       N  0.95075620  0.51799206  0.22796873    -0.05200
N1932       N  0.92595449  0.52470887  0.22042814    -0.64000
Mn1933     Mn  0.52394960  0.54385809  0.20481085     1.10700
C1934       C  0.93777883  0.55657958  0.21649396     0.98900
C1935       C  0.03745343  0.96262023  0.14868535     0.99000
N1936       N  0.94809196  0.91386811  0.11065492    -0.06300
N1937       N  0.94403363  0.88486773  0.10028396    -0.61700
N1938       N  0.90630827  0.94819181  0.13022745    -0.05600
N1939       N  0.87642806  0.93799714  0.14343514    -0.58400
N1940       N  0.91077295  0.94532398  0.06622395    -0.06900
N1941       N  0.88418799  0.93421773  0.03373148    -0.61200
N1942       N  0.94469168  0.91783682  0.17461783    -0.05900
N1943       N  0.93967064  0.89205645  0.20977655    -0.58400
Mn1944     Mn  0.96119647  0.95693970  0.03820162     1.20200
Mn1945     Mn  0.94951388  0.96704323  0.20030829     1.10100
Cl1946     Cl  0.99412061  0.50254583  0.11902842    -0.86400
C1947       C  0.93814167  0.87132466  0.16263617     0.95900
C1948       C  0.86303279  0.92921644  0.08284081     0.95700
C1949       C  0.66910664  0.83470278  0.22136897     0.29600
C1950       C  0.67172084  0.83446494  0.37746070     0.29600
C1951       C  0.66238643  0.85970494  0.26196920    -0.06600
C1952       C  0.64646409  0.80519312  0.26566625    -0.07400
C1953       C  0.70118560  0.84125685  0.26023577    -0.07300
C1954       C  0.66388403  0.85947814  0.33601243    -0.06600
C1955       C  0.65052686  0.80413271  0.33841454    -0.07400
C1956       C  0.70244057  0.84088479  0.33486634    -0.07300
C1957       C  0.66895290  0.88939306  0.35303216    -0.32700
N1958       N  0.66432063  0.90521907  0.29920506     0.13800
C1959       C  0.66393137  0.88900314  0.24363736    -0.32700
H1960       H  0.66612106  0.89916601  0.19345559     0.15800
C1961       C  0.64352493  0.77258938  0.35207395    -0.31600
N1962       N  0.62746951  0.75470362  0.30037149     0.12600
C1963       C  0.62743562  0.77462883  0.24977204    -0.31600
C1964       C  0.73388045  0.85703354  0.35052182    -0.31900
N1965       N  0.75125594  0.86526044  0.29386314     0.13100
H1966       H  0.74340154  0.86625018  0.39704135     0.15700
C1967       C  0.73187397  0.85965156  0.24079463    -0.32500
H1968       H  0.73973637  0.87152867  0.19271022     0.15700
H1969       H  0.61243552  0.76742782  0.20668609     0.15700
H1970       H  0.67485994  0.89934230  0.40239400     0.15800
H1971       H  0.65190442  0.76367358  0.39483313     0.15700
C1972       C  0.66853509  0.83426483  0.47126913     0.29600
C1973       C  0.66818309  0.83374916  0.12731384     0.29600
C1974       C  0.65633818  0.85646088  0.51019693    -0.06600
C1975       C  0.64735258  0.80402356  0.51406427    -0.07400
C1976       C  0.69930270  0.84124680  0.51313030    -0.07300
C1977       C  0.65454319  0.85466041  0.08503285    -0.06600
C1978       C  0.65048935  0.80277822  0.08744976    -0.07400
C1979       C  0.69908774  0.84220634  0.08673488    -0.07300
C1980       C  0.63193031  0.86515525  0.10234116    -0.32700
N1981       N  0.62342788  0.87700778  0.54590481     0.13800
C1982       C  0.63466892  0.86845948  0.49104625    -0.32700
H1983       H  0.62547658  0.86874267  0.44100481     0.15800
C1984       C  0.64079765  0.77166150  0.10377770    -0.31600
N1985       N  0.62374206  0.75528617  0.55276509     0.12600
C1986       C  0.62680266  0.77433246  0.49857301    -0.31600
C1987       C  0.72256560  0.83327316  0.10503358    -0.31900
N1988       N  0.74036517  0.83293986  0.55408904     0.13100
H1989       H  0.72334391  0.82142929  0.15195069     0.15700
C1990       C  0.72325051  0.83242199  0.49874574    -0.31900
H1991       H  0.72581535  0.82171548  0.45299841     0.15700
H1992       H  0.61307321  0.76740688  0.45369264     0.15700
H1993       H  0.62203174  0.86392958  0.15185474     0.15800
H1994       H  0.64716477  0.76152511  0.14748723     0.15700
C1995       C  0.57855814  0.71404222  0.10610826    -0.09600
C1996       C  0.60284739  0.72278300  0.05870552     0.06600
C1997       C  0.60766933  0.70064108  0.52235060    -0.03400
C1998       C  0.58452678  0.66956231  0.02384669    -0.07800
C1999       C  0.56016978  0.66060163  0.07129284     0.05700
C2000       C  0.55772364  0.68284143  0.11424918    -0.02800
Br2001     Br  0.52714033  0.67201008  0.18519461    -0.02500
H2002       H  0.57605684  0.73152406  0.13718590     0.09600
H2003       H  0.59065100  0.65262699  0.49907560     0.07700
Br2004     Br  0.64424142  0.71040646  0.46881445    -0.03000
C2005       C  0.78285062  0.88540651  0.01931290    -0.09600
C2006       C  0.77301440  0.85664079  0.05622538     0.06600
C2007       C  0.79327367  0.85286243  0.10518867    -0.03400
C2008       C  0.82296026  0.87684787  0.11408158    -0.07800
C2009       C  0.83211487  0.90496829  0.07594569     0.05700
C2010       C  0.81228772  0.90911426  0.02773778    -0.02800
Br2011     Br  0.82400108  0.94771056  0.97560363    -0.02500
H2012       H  0.76680007  0.89057588  0.98644397     0.09600
H2013       H  0.83887316  0.87356184  0.15035145     0.07700
Br2014     Br  0.77997989  0.81632833  0.16353652    -0.03000
C2015       C  0.60034973  0.94417891  0.02953811    -0.09600
C2016       C  0.56800036  0.93021370  0.04139435     0.06600
C2017       C  0.55415007  0.89831285  0.06335259    -0.03400
C2018       C  0.57174909  0.88021822  0.06410141    -0.07800
C2019       C  0.60339991  0.89364376  0.04611698     0.05700
C2020       C  0.61883722  0.92749685  0.52714789    -0.02800
Br2021     Br  0.66245121  0.94853195  0.50663119    -0.02500
H2022       H  0.61174187  0.96958847  0.50973765     0.09600
H2023       H  0.56086730  0.85567460  0.07962911     0.07700
Br2024     Br  0.51282023  0.87882965  0.10072688    -0.03000
C2025       C  0.62826261  0.70692876  0.24972376    -0.09600
C2026       C  0.61566977  0.72081493  0.29660828     0.06600
C2027       C  0.59059920  0.70098986  0.33739859    -0.03400
C2028       C  0.57983111  0.66841664  0.33391117    -0.07800
C2029       C  0.59182641  0.65456696  0.28601962     0.05700
C2030       C  0.61585961  0.67413242  0.24282185    -0.02800
Br2031     Br  0.62933876  0.65760513  0.16834873    -0.02500
H2032       H  0.64713511  0.72165336  0.21689449     0.09600
H2033       H  0.56035321  0.65384053  0.36589313     0.07700
Br2034     Br  0.56715962  0.71697564  0.39122122    -0.03000
C2035       C  0.80134081  0.85961941  0.30095171    -0.09600
C2036       C  0.78484199  0.87877798  0.29081731     0.06600
C2037       C  0.80137901  0.91038917  0.27270859    -0.03400
C2038       C  0.83373217  0.92292581  0.26920718    -0.07800
C2039       C  0.85072516  0.90423346  0.28024732     0.05700
C2040       C  0.83403716  0.87187902  0.29268154    -0.02800
Br2041     Br  0.85383365  0.84342780  0.28815229    -0.02500
H2042       H  0.78848115  0.83474622  0.31171954     0.09600
H2043       H  0.84550534  0.94778304  0.25675085     0.07700
Br2044     Br  0.78076335  0.93751216  0.25294213    -0.03000
C2045       C  0.61005877  0.89620949  0.31362629    -0.09600
C2046       C  0.64152377  0.91763935  0.30731128     0.06600
C2047       C  0.65045956  0.94893195  0.32378200    -0.03400
C2048       C  0.62820429  0.95842073  0.34807074    -0.07800
C2049       C  0.59703428  0.93661503  0.35827228     0.05700
C2050       C  0.58782497  0.90515678  0.34023822    -0.02800
Br2051     Br  0.54667243  0.87247141  0.35520576    -0.02500
H2052       H  0.60345069  0.87170164  0.30278617     0.09600
H2053       H  0.63581264  0.98279232  0.36141653     0.07700
Br2054     Br  0.69310136  0.97857099  0.31804635    -0.03000
C2055       C  0.87159448  0.58451328  0.20283846    -0.09600
C2056       C  0.88842562  0.61694830  0.19018323     0.06600
C2057       C  0.92097337  0.62846586  0.18095819    -0.03400
C2058       C  0.93625250  0.60823633  0.18763576    -0.07800
C2059       C  0.91963500  0.57594072  0.20244745     0.05700
C2060       C  0.88666414  0.56393383  0.20758581    -0.02800
Br2061     Br  0.86057295  0.52010929  0.22288904    -0.02500
H2062       H  0.84651738  0.57520393  0.20966797     0.09600
H2063       H  0.96144252  0.61807619  0.18244250     0.07700
Br2064     Br  0.94563559  0.67218023  0.16339784    -0.03000
C2065       C  0.89471665  0.79087887  0.23692382    -0.09600
C2066       C  0.86699241  0.78087464  0.19915141     0.06600
C2067       C  0.86368392  0.80077170  0.14806825    -0.03400
C2068       C  0.88766697  0.82991948  0.13471962    -0.07800
C2069       C  0.91529304  0.83955855  0.17215765     0.05700
C2070       C  0.91866613  0.82043358  0.22443229    -0.02800
Br2071     Br  0.95627671  0.83344618  0.27695892    -0.02500
H2072       H  0.89860046  0.77531602  0.27333355     0.09600
H2073       H  0.88443537  0.84528425  0.09618520     0.07700
Br2074     Br  0.82678540  0.78837884  0.09469822    -0.03000
C2075       C  0.69941705  0.56118580  0.17470574    -0.09600
C2076       C  0.71394289  0.59276759  0.19256354     0.06600
C2077       C  0.69647235  0.61091233  0.19732396    -0.03400
C2078       C  0.66464814  0.59708480  0.18656380    -0.07800
C2079       C  0.65016233  0.56558536  0.16990619     0.05700
C2080       C  0.66729965  0.54741678  0.16319334    -0.02800
Br2081     Br  0.64743783  0.50400373  0.14031645    -0.02500
H2082       H  0.71313070  0.54757932  0.16905674     0.09600
H2083       H  0.65111682  0.61085088  0.19112597     0.07700
Br2084     Br  0.71528985  0.65507391  0.21362843    -0.03000
C2085       C  0.89404663  0.61530022  0.46687329    -0.09600
C2086       C  0.86180160  0.59699601  0.46668981     0.06600
C2087       C  0.85017754  0.56676361  0.44108667    -0.03400
C2088       C  0.86999835  0.55692686  0.40693426    -0.07800
C2089       C  0.90182783  0.57676654  0.39918506     0.05700
C2090       C  0.91432768  0.60565502  0.43308961    -0.02800
Br2091     Br  0.95851291  0.63686690  0.92123305    -0.02500
H2092       H  0.90488755  0.64098747  0.98164330     0.09600
H2093       H  0.86001000  0.53414338  0.38385368     0.07700
Br2094     Br  0.80641700  0.54027918  0.44266358    -0.03000
C2095       C  0.90531977  0.79937018  0.94565447    -0.09600
C2096       C  0.87224679  0.78438175  0.43828232     0.06600
C2097       C  0.85447619  0.80263326  0.43744343    -0.03400
C2098       C  0.86920662  0.83564866  0.44558359    -0.07800
C2099       C  0.90188659  0.85120469  0.45271142     0.05700
C2100       C  0.91927976  0.83213856  0.45414168    -0.02800
Br2101     Br  0.96457269  0.84683420  0.96613821    -0.02500
H2102       H  0.91903880  0.78553581  0.94873736     0.09600
H2103       H  0.85514421  0.84915381  0.44472229     0.07700
Br2104     Br  0.81027639  0.78335547  0.42218362    -0.03000
C2105       C  0.68907529  0.62186617  0.40061067    -0.09600
C2106       C  0.70464329  0.64662237  0.44415507     0.06600
C2107       C  0.68623240  0.65607953  0.98781588    -0.03400
C2108       C  0.65377607  0.63946102  0.48986912    -0.07800
C2109       C  0.63874421  0.61383569  0.44840292     0.05700
C2110       C  0.65673311  0.60536582  0.40268665    -0.02800
Br2111     Br  0.63937369  0.57007298  0.34443693    -0.02500
H2112       H  0.70237471  0.61410951  0.36700973     0.09600
H2113       H  0.63983798  0.64642980  0.02410454     0.07700
Br2114     Br  0.70465057  0.69143763  0.04485106    -0.03000
C2115       C  0.81575303  0.67128842  0.52838387     0.29600
C2116       C  0.81774926  0.67118451  0.87230793     0.29600
C2117       C  0.81976749  0.64418643  0.49087125    -0.06600
C2118       C  0.78628266  0.66903600  0.48580868    -0.07400
C2119       C  0.83920476  0.70094576  0.48621876    -0.07300
C2120       C  0.82217281  0.64521715  0.91698269    -0.06600
C2121       C  0.78725718  0.66965658  0.91133072    -0.07400
C2122       C  0.84299119  0.69954234  0.91234986    -0.07300
C2123       C  0.84245010  0.63168464  0.90809271    -0.32700
N2124       N  0.84381722  0.61516223  0.96352027     0.13800
C2125       C  0.82867127  0.62119395  0.51491902    -0.32700
H2126       H  0.82814904  0.61291531  0.56649064     0.15800
C2127       C  0.75711458  0.66392003  0.89113099    -0.31600
N2128       N  0.73852750  0.65996146  0.44601067     0.12600
C2129       C  0.75594657  0.66322759  0.50299306    -0.31600
C2130       C  0.85993324  0.73029507  0.89073186    -0.31900
N2131       N  0.85825775  0.75030271  0.43962569     0.13100
H2132       H  0.87073951  0.73755593  0.84224596     0.15700
C2133       C  0.84414818  0.73219884  0.49378987    -0.31900
H2134       H  0.83327195  0.74038182  0.53122906     0.15700
H2135       H  0.74667223  0.65930926  0.55378287     0.15700
H2136       H  0.86195477  0.64116769  0.87440186     0.15800
H2137       H  0.74890263  0.66096474  0.83958775     0.15700
C2138       C  0.81782491  0.66913477  0.77787445     0.29600
C2139       C  0.81887208  0.67054994  0.62191366     0.29600
C2140       C  0.84464768  0.66320058  0.73714482    -0.06600
C2141       C  0.79058192  0.64417818  0.73699713    -0.07400
C2142       C  0.81803583  0.69866336  0.73543917    -0.07300
C2143       C  0.84642985  0.66631219  0.66248061    -0.06600
C2144       C  0.79131399  0.64488648  0.66304466    -0.07400
C2145       C  0.82144172  0.69973305  0.66165644    -0.07300
C2146       C  0.86725681  0.65406890  0.64173608    -0.32700
N2147       N  0.87338234  0.63839394  0.69422908     0.13800
C2148       C  0.85719568  0.64089784  0.74815142    -0.32700
H2149       H  0.84882047  0.62195469  0.78469516     0.15800
C2150       C  0.76450082  0.62073899  0.64301825    -0.31600
N2151       N  0.74724550  0.60651983  0.69829218     0.12600
C2152       C  0.76290401  0.61986048  0.75514633    -0.31600
C2153       C  0.84317600  0.72966939  0.64930669    -0.31900
N2154       N  0.84558509  0.74804478  0.70137422     0.13100
H2155       H  0.86127806  0.73628769  0.61163644     0.15700
C2156       C  0.82955021  0.72976664  0.75375994    -0.31900
H2157       H  0.82707311  0.73855207  0.80195185     0.15700
H2158       H  0.75346571  0.61391868  0.80574682     0.15700
H2159       H  0.87504226  0.65390836  0.59068625     0.15800
H2160       H  0.75662028  0.61546915  0.59150740     0.15700
N2161       N  0.55685111  0.57330095  0.94361484    -0.06500
N2162       N  0.58115402  0.60074728  0.94846150    -0.58700
N2163       N  0.55856293  0.57279148  0.79455770    -0.06200
N2164       N  0.58407747  0.59893714  0.78346281    -0.60800
N2165       N  0.53418229  0.57975236  0.79700570    -0.05800
N2166       N  0.54196334  0.60946789  0.78369010    -0.58600
N2167       N  0.56672412  0.55078002  0.94607093    -0.05500
N2168       N  0.59653121  0.56184607  0.95946295    -0.61100
C2169       C  0.60555948  0.59293989  0.96098246     0.95600
C2170       C  0.57294036  0.62149252  0.77453403     0.95400
N2171       N  0.02025187  0.95683944  0.78041837    -0.06700
N2172       N  0.02553030  0.93517345  0.74881929    -0.59200
N2173       N  0.55754192  0.98184689  0.89130799    -0.04900
N2174       N  0.58428072  0.97937072  0.89114191    -0.60500
N2175       N  0.53393291  0.95379272  0.89100557    -0.06800
N2176       N  0.54478584  0.93193425  0.88821320    -0.59500
N2177       N  0.54547842  0.48521402  0.78174657    -0.04500
N2178       N  0.56753263  0.48120198  0.74811768    -0.60600
Mn2179     Mn  0.55116838  0.52472536  0.85202744     1.18400
C2180       C  0.05109481  0.45454906  0.71062792     0.97700
C2181       C  0.57616601  0.94833123  0.88770217     0.98400
N2182       N  0.96141719  0.55703418  0.85044278    -0.06800
N2183       N  0.95222205  0.58003565  0.85392928    -0.63100
N2184       N  0.94465160  0.01853890  0.96331238    -0.05600
N2185       N  0.92159636  0.02310228  0.49319359    -0.63800
N2186       N  0.46855560  0.54934533  0.96542204    -0.06300
N2187       N  0.46272168  0.56743536  0.49685488    -0.63400
N2188       N  0.93696398  0.52955725  0.84947213    -0.05200
N2189       N  0.91117258  0.53407704  0.85288213    -0.64000
Mn2190     Mn  0.50765382  0.56028263  0.89043064     1.10700
C2191       C  0.92086579  0.56541462  0.85764098     0.98900
C2192       C  0.93694154  0.04906329  0.52901262     0.99000
N2193       N  0.95662292  0.92947952  0.94459242    -0.06300
N2194       N  0.94951597  0.89974485  0.95670331    -0.61700
N2195       N  0.92612448  0.95941832  0.80085636    -0.05600
N2196       N  0.89728189  0.95197467  0.78372576    -0.58400
N2197       N  0.93291501  0.93494793  0.80222379    -0.06900
N2198       N  0.90647678  0.90925103  0.79579278    -0.61200
N2199       N  0.93170124  0.93565603  0.94062858    -0.05900
N2200       N  0.90673718  0.90799273  0.94500263    -0.58400
Mn2201     Mn  0.98251229  0.94741848  0.85399602     1.20200
Mn2202     Mn  0.93574301  0.98394529  0.88951245     1.10100
Cl2203     Cl  0.99390435  0.50423529  0.87101991    -0.86400
C2204       C  0.91849051  0.88588186  0.95723193     0.95900
C2205       C  0.88460543  0.92080338  0.78172772     0.95700
N2206       N  0.57459999  0.55446988  0.67434208    -0.06500
N2207       N  0.59820572  0.55436428  0.71000630    -0.58700
N2208       N  0.54031137  0.58331242  0.56920153    -0.06200
N2209       N  0.54139476  0.60785696  0.53404854    -0.60800
N2210       N  0.53720117  0.58695165  0.63342418    -0.05800
N2211       N  0.53745771  0.61460197  0.64369520    -0.58600
N2212       N  0.57864962  0.55106634  0.61016174    -0.05500
N2213       N  0.60544329  0.54922722  0.60039351    -0.61100
C2214       C  0.61730811  0.55139798  0.66311805     0.95600
C2215       C  0.54137531  0.62791711  0.58138221     0.95400
N2216       N  0.96241916  0.00185756  0.58398600    -0.06700
N2217       N  0.93763686  0.00718908  0.09814747    -0.59200
N2218       N  0.53605183  0.98674913  0.51263153    -0.04900
N2219       N  0.56110709  0.98062562  0.52129949    -0.60500
N2220       N  0.51066174  0.96019071  0.51332873    -0.06800
N2221       N  0.51817981  0.93593723  0.52137927    -0.59500
N2222       N  0.48802769  0.52847698  0.58803462    -0.04500
N2223       N  0.47899270  0.55085953  0.10043885    -0.60600
Mn2224     Mn  0.53541882  0.53487691  0.54016263     1.18400
C2225       C  0.94911999  0.54060303  0.09154652     0.97700
C2226       C  0.54965726  0.94883059  0.52607352     0.98400
N2227       N  0.97650752  0.54363567  0.72822981    -0.06800
N2228       N  0.96991479  0.56851596  0.72014039    -0.63100
N2229       N  0.99661146  0.97160154  0.65723896    -0.05600
N2230       N  0.00492319  0.94831386  0.64613735    -0.63800
N2231       N  0.52204246  0.49844369  0.65872270    -0.06300
N2232       N  0.54688297  0.49317695  0.64528488    -0.63400
N2233       N  0.95049465  0.51761227  0.72786846    -0.05200
N2234       N  0.92602431  0.52486125  0.72018991    -0.64000
Mn2235     Mn  0.52465472  0.54415949  0.70525084     1.10700
C2236       C  0.93835984  0.55675459  0.71616399     0.98900
C2237       C  0.03654985  0.96158213  0.64857893     0.99000
N2238       N  0.94717088  0.91356565  0.61063341    -0.06300
N2239       N  0.94288123  0.88451123  0.60023072    -0.61700
N2240       N  0.90591578  0.94804132  0.63102864    -0.05600
N2241       N  0.87600122  0.93672992  0.64497738    -0.58400
N2242       N  0.91031282  0.94518034  0.56696685    -0.06900
N2243       N  0.88362533  0.93303917  0.53512852    -0.61200
N2244       N  0.94383273  0.91757015  0.67461690    -0.05900
N2245       N  0.93864511  0.89177759  0.70980259    -0.58400
Mn2246     Mn  0.96065900  0.95663706  0.53809335     1.20200
Mn2247     Mn  0.94922052  0.96679184  0.70058619     1.10100
Cl2248     Cl  0.99336820  0.50140940  0.61891110    -0.86400
C2249       C  0.93701230  0.87103777  0.66263498     0.95900
C2250       C  0.86255390  0.92747160  0.58461309     0.95700
C2251       C  0.66899924  0.83532552  0.72136562     0.29600
C2252       C  0.67111177  0.83471671  0.87730908     0.29600
C2253       C  0.66242289  0.86046253  0.76199305    -0.06600
C2254       C  0.64601237  0.80586515  0.76516725    -0.07400
C2255       C  0.70092862  0.84162903  0.76052619    -0.07300
C2256       C  0.66348029  0.85993941  0.83616033    -0.06600
C2257       C  0.64992958  0.80458034  0.83784985    -0.07400
C2258       C  0.70191827  0.84129266  0.83533383    -0.07300
C2259       C  0.66887935  0.88988424  0.85374762    -0.32700
N2260       N  0.66545927  0.90636530  0.79972865     0.13800
C2261       C  0.66525693  0.89026208  0.74404446    -0.32700
H2262       H  0.66819259  0.90069757  0.69398416     0.15800
C2263       C  0.64273671  0.77299825  0.85098097    -0.31600
N2264       N  0.62645782  0.75534912  0.79924415     0.12600
C2265       C  0.62658858  0.77545489  0.74894411    -0.31600
C2266       C  0.73294240  0.85867497  0.85111149    -0.31900
N2267       N  0.75064609  0.86692125  0.79545370     0.13100
H2268       H  0.74215543  0.86909064  0.89932766     0.15700
C2269       C  0.73161975  0.86041931  0.74146803    -0.32500
H2270       H  0.73965211  0.87184031  0.69306486     0.15700
H2271       H  0.61157871  0.76844657  0.70572949     0.15700
H2272       H  0.67412653  0.89936420  0.90366574     0.15800
H2273       H  0.65128702  0.76389846  0.89313218     0.15700
C2274       C  0.66816032  0.83415475  0.97112439     0.29600
C2275       C  0.66833799  0.83429130  0.62742486     0.29600
C2276       C  0.65504094  0.85542183  0.01056561    -0.06600
C2277       C  0.64792131  0.80347532  0.01372067    -0.07400
C2278       C  0.69922498  0.84206905  0.01256598    -0.07300
C2279       C  0.65586445  0.85598285  0.58472006    -0.06600
C2280       C  0.64976660  0.80343745  0.58786004    -0.07400
C2281       C  0.69909185  0.84165217  0.58723191    -0.07300
C2282       C  0.63380877  0.86720737  0.60184722    -0.32700
N2283       N  0.62135472  0.87492716  0.04654041     0.13800
C2284       C  0.63317535  0.86715487  0.99145369    -0.32700
H2285       H  0.62453119  0.86809176  0.94108971     0.15800
C2286       C  0.64035682  0.77231241  0.60404119    -0.31600
N2287       N  0.62411800  0.75470971  0.05244765     0.12600
C2288       C  0.62715281  0.77383372  0.99839942    -0.31600
C2289       C  0.72225386  0.83243827  0.60631814    -0.31900
N2290       N  0.74083719  0.83443070  0.05268819     0.13100
H2291       H  0.72323962  0.82138577  0.65413062     0.15700
C2292       C  0.72357949  0.83388509  0.99760638    -0.31900
H2293       H  0.72624890  0.82334077  0.95191066     0.15700
H2294       H  0.61301991  0.76701356  0.95402425     0.15700
H2295       H  0.62388064  0.86617003  0.65124234     0.15800
H2296       H  0.64685701  0.76222452  0.64769821     0.15700
C2297       C  0.57765434  0.71450893  0.60442453    -0.09600
C2298       C  0.60280446  0.72326369  0.55918096     0.06600
C2299       C  0.60640397  0.70024674  0.01909871    -0.03400
C2300       C  0.58635027  0.66975557  0.52773073    -0.07800
C2301       C  0.56093545  0.66088490  0.57232817     0.05700
C2302       C  0.55703738  0.68320705  0.61253236    -0.02800
Br2303     Br  0.52432446  0.67219062  0.67875418    -0.02500
H2304       H  0.57425781  0.73209249  0.63358824     0.09600
H2305       H  0.58783755  0.65258824  0.99280242     0.07700
Br2306     Br  0.64239573  0.70961040  0.96379169    -0.03000
C2307       C  0.78265046  0.88351103  0.52006158    -0.09600
C2308       C  0.77266272  0.85484252  0.55749638     0.06600
C2309       C  0.79270515  0.85108330  0.60689546    -0.03400
C2310       C  0.82243367  0.87504758  0.61599485    -0.07800
C2311       C  0.83171335  0.90311715  0.57760303     0.05700
C2312       C  0.81210997  0.90716243  0.52880567    -0.02800
Br2313     Br  0.82399253  0.94562983  0.47606541    -0.02500
H2314       H  0.76704095  0.88866347  0.48752639     0.09600
H2315       H  0.83823907  0.87183493  0.65250711     0.07700
Br2316     Br  0.77887802  0.81467584  0.66574031    -0.03000
C2317       C  0.60085235  0.94506800  0.52569509    -0.09600
C2318       C  0.56882283  0.93089749  0.54079309     0.06600
C2319       C  0.55583469  0.89943084  0.56560538    -0.03400
C2320       C  0.57391510  0.88185230  0.56662247    -0.07800
C2321       C  0.60508789  0.89530120  0.54511287     0.05700
C2322       C  0.61795017  0.92617151  0.03186496    -0.02800
Br2323     Br  0.66217490  0.94691484  0.01834293    -0.02500
H2324       H  0.61187194  0.96894748  0.01594588     0.09600
H2325       H  0.56374931  0.85764494  0.58470106     0.07700
Br2326     Br  0.51513134  0.87992289  0.60587600    -0.03000
C2327       C  0.62758287  0.70744673  0.75017761    -0.09600
C2328       C  0.61437039  0.72148929  0.79528391     0.06600
C2329       C  0.58880424  0.70188119  0.83503823    -0.03400
C2330       C  0.57792035  0.66930473  0.83193145    -0.07800
C2331       C  0.59064478  0.65524164  0.78601563     0.05700
C2332       C  0.61540961  0.67461043  0.74424438    -0.02800
Br2333     Br  0.63072433  0.65767719  0.67355090    -0.02500
H2334       H  0.64695198  0.72207394  0.71837170     0.09600
H2335       H  0.55805993  0.65489869  0.86313918     0.07700
Br2336     Br  0.56554972  0.71829514  0.88838382    -0.03000
C2337       C  0.80007611  0.86018546  0.79915102    -0.09600
C2338       C  0.78417916  0.88005258  0.79370514     0.06600
C2339       C  0.80128653  0.91224777  0.78407309    -0.03400
C2340       C  0.83362464  0.92430432  0.78051018    -0.07800
C2341       C  0.85004387  0.90473078  0.78491360     0.05700
C2342       C  0.83278788  0.87215829  0.79231285    -0.02800
Br2343     Br  0.85186664  0.84323609  0.78409576    -0.02500
H2344       H  0.78675973  0.83513030  0.80601262     0.09600
H2345       H  0.84576797  0.94951742  0.77357626     0.07700
Br2346     Br  0.78134362  0.94066458  0.77701596    -0.03000
C2347       C  0.61134365  0.89888897  0.80539254    -0.09600
C2348       C  0.64318174  0.91952289  0.80677556     0.06600
C2349       C  0.65222121  0.94974586  0.83090005    -0.03400
C2350       C  0.62973094  0.95852446  0.85657407    -0.07800
C2351       C  0.59806227  0.93722446  0.85922188     0.05700
C2352       C  0.58868578  0.90725685  0.83182715    -0.02800
Br2353     Br  0.54635795  0.87581152  0.83105420    -0.02500
H2354       H  0.60447306  0.87517807  0.78813116     0.09600
H2355       H  0.63739201  0.98190109  0.87642732     0.07700
Br2356     Br  0.69506913  0.97896769  0.83228990    -0.03000
C2357       C  0.87280237  0.58508534  0.68844467    -0.09600
C2358       C  0.88959073  0.61782285  0.69202184     0.06600
C2359       C  0.92213985  0.62982870  0.70103283    -0.03400
C2360       C  0.93738750  0.60957030  0.70616135    -0.07800
C2361       C  0.92072574  0.57675120  0.70376015     0.05700
C2362       C  0.88793752  0.56453272  0.69403201    -0.02800
Br2363     Br  0.86208261  0.52030745  0.68954824    -0.02500
H2364       H  0.84765934  0.57547703  0.68268261     0.09600
H2365       H  0.96237950  0.61964326  0.71470478     0.07700
Br2366     Br  0.94621672  0.67385761  0.71122134    -0.03000
C2367       C  0.89439199  0.79069397  0.73742877    -0.09600
C2368       C  0.86662896  0.78040765  0.69979988     0.06600
C2369       C  0.86292537  0.80014842  0.64896101    -0.03400
C2370       C  0.88666240  0.82939270  0.63527984    -0.07800
C2371       C  0.91437098  0.83927343  0.67243746     0.05700
C2372       C  0.91805265  0.82038076  0.72480527    -0.02800
Br2373     Br  0.95571666  0.83393543  0.77726858    -0.02500
H2374       H  0.89853882  0.77530792  0.77380807     0.09600
H2375       H  0.88315857  0.84465404  0.59688099     0.07700
Br2376     Br  0.82567162  0.78737278  0.59688968    -0.03000
C2377       C  0.69918470  0.55912778  0.68399571    -0.09600
C2378       C  0.71419608  0.59149885  0.69472411     0.06600
C2379       C  0.69705184  0.61007809  0.69465253    -0.03400
C2380       C  0.66522175  0.59622464  0.68422903    -0.07800
C2381       C  0.65030074  0.56411922  0.67370956     0.05700
C2382       C  0.66693497  0.54520799  0.67362625    -0.02800
Br2383     Br  0.64618540  0.50075171  0.66083640    -0.02500
H2384       H  0.71257757  0.54500498  0.68299485     0.09600
H2385       H  0.65201406  0.61044287  0.68401142     0.07700
Br2386     Br  0.71640548  0.65468091  0.70520740    -0.03000
C2387       C  0.89574899  0.61722315  0.96343318    -0.09600
C2388       C  0.86350192  0.59896737  0.96560449     0.06600
C2389       C  0.85130239  0.56867709  0.94021431    -0.03400
C2390       C  0.87063364  0.55824500  0.90602898    -0.07800
C2391       C  0.90241521  0.57780487  0.89668891     0.05700
C2392       C  0.91540243  0.60730984  0.92810769    -0.02800
Br2393     Br  0.95780110  0.63435705  0.43347421    -0.02500
H2394       H  0.90287442  0.63881464  0.48636205     0.09600
H2395       H  0.86023680  0.53533253  0.88356369     0.07700
Br2396     Br  0.80722291  0.54346355  0.93963025    -0.03000
C2397       C  0.90439168  0.79965280  0.44663586    -0.09600
C2398       C  0.87324382  0.78404414  0.93637948     0.06600
C2399       C  0.85535957  0.80213880  0.93405143    -0.03400
C2400       C  0.86984427  0.83509564  0.94248457    -0.07800
C2401       C  0.90240521  0.85069643  0.95148737     0.05700
C2402       C  0.92003473  0.83184536  0.95316137    -0.02800
Br2403     Br  0.96369964  0.84681808  0.46749601    -0.02500
H2404       H  0.91804995  0.78575170  0.44907875     0.09600
H2405       H  0.85568300  0.84849596  0.94091539     0.07700
Br2406     Br  0.81130700  0.78257927  0.91715933    -0.03000
C2407       C  0.68897249  0.62132742  0.90213041    -0.09600
C2408       C  0.70447192  0.64653802  0.94464011     0.06600
C2409       C  0.68650063  0.65587816  0.48815782    -0.03400
C2410       C  0.65348280  0.63971943  0.98921151    -0.07800
C2411       C  0.63852375  0.61371257  0.94872369     0.05700
C2412       C  0.65662476  0.60479885  0.90417397    -0.02800
Br2413     Br  0.63939246  0.56914714  0.84683331    -0.02500
H2414       H  0.70233617  0.61333497  0.86922324     0.09600
H2415       H  0.64024928  0.64579062  0.52580749     0.07700
Br2416     Br  0.70506162  0.69105302  0.54560933    -0.03000
loop_ 
_geom_bond_atom_site_label_1 
_geom_bond_atom_site_label_2 
_geom_bond_distance 
_geom_bond_site_symmetry_2 
_ccdc_geom_bond_type 
C1            C3   1.563   1_554  S
C1            C5   1.588   1_554  S
C1            C4   1.584   1_554  S
C1           C25   1.857       .  S
C2            C6   1.563       .  S
C2            C8   1.596       .  S
C2            C7   1.604       .  S
C2           C24   1.876       .  S
C3           C11   1.373   1_556  A
C3          C308   1.463       .  A
C4           C15   1.382   1_556  A
C4          C309   1.473       .  A
C5           C19   1.393       .  A
C5          C310   1.471       .  A
C6            C9   1.354       .  A
C6          C305   1.463       .  A
C7           C13   1.381       .  A
C7          C306   1.473       .  A
C8           C16   1.385       .  A
C8          C307   1.470       .  A
C9           N10   1.341       .  A
C9           H22   1.063       .  S
N10         C313   1.342       .  A
N10         C274   1.415       .  S
C11         N312   1.340   1_554  A
C11          H12   1.079       .  S
C13         N316   1.366       .  A
C13          H23   1.079       .  S
N14          C15   1.363   1_556  A
N14         C315   1.366       .  A
N14         C596   1.450       .  S
C15          H21   1.081       .  S
C16         N319   1.351       .  A
C16          H18   1.070       .  S
N17          C19   1.344       .  A
N17         C318   1.350       .  A
N17         C586   1.447       .  S
C19          H20   1.068   1_556  S
C24          C26   1.621       .  S
C24          C28   1.589       .  S
C24          C27   1.570       .  S
C25          C29   1.594       .  S
C25          C31   1.555       .  S
C25          C30   1.566       .  S
C26          C34   1.401       .  A
C26          C29   1.481       .  A
C27          C38   1.373       .  A
C27          C30   1.464       .  A
C28          C42   1.382       .  A
C28          C31   1.471       .  A
C29          C32   1.389       .  A
C30          C36   1.362       .  A
C31          C39   1.368       .  A
C32          N33   1.350       .  A
C32          H45   1.080       .  S
N33          C34   1.352       .  A
N33         C244   1.452       .  S
C34          H35   1.068       .  S
C36          N37   1.351       .  A
C36          H46   1.081       .  S
N37          C38   1.359       .  A
N37         C264   1.417       .  S
C38          H44   1.081       .  S
C39          N40   1.335       .  A
C39          H41   1.076       .  S
N40          C42   1.344       .  A
N40         C254   1.425       .  S
C42          H43   1.075       .  S
N47          N48   1.325       .  A
N47          N53   1.310       .  A
N47         Mn76   2.374       .  S
N48          C55   1.356       .  A
N49          N51   1.312       .  A
N49          N50   1.327       .  A
N49         Mn65   2.383       .  S
N50          C56   1.360       .  A
N51          N52   1.302       .  A
N51         Mn76   2.195       .  S
N52          C56   1.338       .  A
N53          N54   1.304       .  A
N53         Mn65   2.206       .  S
N54          C55   1.337       .  A
C55         C297   1.467       .  S
C56         C217   1.469       .  S
N57          N58   1.312       .  A
N57        N1875   1.320       .  A
N57         Mn87   2.198       .  S
N58         C670   1.343       .  A
N59          N60   1.306       .  A
N59          N61   1.324       .  A
N59        Mn669   2.285       .  S
N60          C67   1.343       .  A
N61          N62   1.316       .  A
N61       Mn1295   2.343   1_455  S
N62          C67   1.351       .  A
N63          N64   1.315       .  A
N63        N1869   1.319       .  A
N63         Mn65   2.270   1_565  S
N64        C1274   1.358       .  A
Mn65        N663   2.287   1_545  S
Mn65      Cl1297   2.510   1_455  S
C66         N662   1.343       .  A
C66        N1272   1.358       .  A
C66         C727   1.467       .  S
C67         C237   1.452       .  S
N68          N69   1.317       .  A
N68          N74   1.325       .  A
N68       Mn1284   2.298       .  S
N69          C77   1.347       .  A
N70        N1884   1.327       .  A
N70         N373   1.317       .  A
N70         Mn88   2.119       .  S
N71          C78   1.347   1_556  A
N71         N372   1.312       .  A
N72        N1882   1.328       .  A
N72         N375   1.319       .  A
N72         Mn76   2.238   1_655  S
N73        C1890   1.349   1_556  A
N73         N374   1.318       .  A
N74          N75   1.313       .  A
N74        Mn692   2.197   1_545  S
N75          C77   1.347       .  A
Mn76       N1276   2.296   1_455  S
Mn76      Cl1297   2.447   1_455  S
C77         C277   1.463       .  S
C78        N1885   1.354       .  A
C78        C1017   1.465       .  S
N79          N80   1.304       .  A
N79          N85   1.315       .  A
N79         Mn87   2.127       .  S
N80          C90   1.328       .  A
N81          N82   1.296       .  A
N81          N83   1.306       .  A
N81         Mn88   2.063       .  S
N82          C91   1.328       .  A
N83          N84   1.334       .  A
N83         Mn87   2.391       .  S
N84          C91   1.365       .  A
N85          N86   1.343       .  A
N85         Mn88   2.386       .  S
N86          C90   1.371       .  A
Mn87       N1269   2.347       .  S
Mn87       Cl693   2.456       .  S
Mn88        N678   2.200       .  S
Mn88       Cl693   2.464       .  S
Cl89      Mn1273   2.511       .  S
Cl89      Mn1284   2.446       .  S
Cl89       Mn691   2.453   1_545  S
Cl89       Mn692   2.465   1_545  S
C90         C287   1.510       .  S
C91         C227   1.484       .  S
N92          N93   1.309       .  A
N92          N98   1.310       .  A
N92        Mn121   2.276       .  S
N93         C100   1.344       .  A
N94          N96   1.305       .  A
N94          N95   1.307       .  A
N94        Mn110   2.269       .  S
N95         C101   1.344       .  A
N96          N97   1.308       .  A
N96        Mn121   2.293       .  S
N97         C101   1.346       .  A
N98          N99   1.311       .  A
N98        Mn110   2.312       .  S
N99         C100   1.345       .  A
C100        C267   1.427       .  S
C101        C187   1.439       .  S
N102       N1920   1.303       .  A
N102        N405   1.320       .  A
N102       Mn132   2.287       .  S
N103        C715   1.352       .  A
N103        N404   1.321       .  A
N104        N105   1.328       .  A
N104        N106   1.321       .  A
N104       Mn714   2.357       .  S
N105        C112   1.357       .  A
N106        N107   1.322       .  A
N106      Mn1340   2.341   1_455  S
N107        C112   1.351       .  A
N108       N1914   1.304       .  A
N108        N411   1.320       .  A
N108       Mn110   2.327   1_655  S
N109       C1319   1.348       .  A
N109        N410   1.320       .  A
Mn110       N708   2.358   1_545  S
Mn110     Cl1342   2.554   1_455  S
C111        N707   1.352       .  A
C111       N1317   1.348       .  A
C111        C984   1.465       .  S
C112        C204   1.483       .  S
N113        N114   1.324       .  A
N113        N119   1.322       .  A
N113      Mn1329   2.340       .  S
N114        C122   1.353       .  A
N115        N116   1.322       .  A
N115       N1929   1.302       .  A
N115       Mn133   2.317       .  S
N116        C123   1.355       .  A
N117        N118   1.317       .  A
N117       N1927   1.302   1_455  A
N117       Mn121   2.300   1_565  S
N118       C1935   1.342       .  A
N119        N120   1.329       .  A
N119       Mn737   2.380   1_545  S
N120        C122   1.358       .  A
Mn121      N1321   2.336   1_455  S
Mn121     Cl1342   2.578   1_455  S
C122        C247   1.493       .  S
C123       N1930   1.342       .  A
C123        C670   1.468       .  S
N124        N125   1.309       .  A
N124        N130   1.306       .  A
N124       Mn132   2.306       .  S
N125        C135   1.349       .  A
N126        N127   1.311       .  A
N126        N128   1.306       .  A
N126       Mn133   2.311       .  S
N127        C136   1.345       .  A
N128        N129   1.304       .  A
N128       Mn132   2.266       .  S
N129        C136   1.339       .  A
N130        N131   1.308       .  A
N130       Mn133   2.281       .  S
N131        C135   1.344       .  A
Mn132      N1314   2.341       .  S
Mn132      Cl738   2.555       .  S
Mn133       N723   2.383       .  S
Mn133      Cl738   2.546       .  S
Cl134     Mn1318   2.555       .  S
Cl134     Mn1329   2.580       .  S
Cl134      Mn736   2.551   1_545  S
Cl134      Mn737   2.546   1_545  S
C135        C257   1.435       .  S
C136        C197   1.435       .  S
C137        C139   1.573       .  S
C137        C141   1.606       .  S
C137        C140   1.594       .  S
C137        C161   1.864       .  S
C138        C142   1.570       .  S
C138        C144   1.582       .  S
C138        C143   1.575       .  S
C138        C160   1.862       .  S
C139        C147   1.378       .  A
C139        C142   1.469       .  A
C140        C151   1.380       .  A
C140        C143   1.452       .  A
C141        C155   1.397       .  A
C141        C144   1.479       .  A
C142        C145   1.369       .  A
C143        C149   1.389       .  A
C144        C152   1.383       .  A
C145        N146   1.346       .  A
C145        H158   1.079       .  S
N146        C147   1.349       .  A
N146        C234   1.422       .  S
C147        H148   1.077       .  S
C149        N150   1.352       .  A
C149        H159   1.072       .  S
N150        C151   1.347       .  A
N150        C214   1.448       .  S
C151        H157   1.073       .  S
C152        N153   1.340       .  A
C152        H154   1.043       .  S
N153        C155   1.344       .  A
N153        C224   1.437       .  S
C155        H156   1.077       .  S
C160        C162   1.590       .  S
C160        C164   1.580       .  S
C160        C163   1.577       .  S
C161        C165   1.586       .  S
C161        C167   1.558       .  S
C161        C166   1.573       .  S
C162        C170   1.391       .  A
C162        C467   1.474       .  A
C163        C174   1.365       .  A
C163        C468   1.464       .  A
C164        C178   1.385       .  A
C164        C469   1.469       .  A
C165        C168   1.387       .  A
C165        C464   1.477       .  A
C166        C172   1.363       .  A
C166        C465   1.465       .  A
C167        C175   1.366       .  A
C167        C466   1.466       .  A
C168        N471   1.348       .  A
C168        H181   1.079       .  S
N169        C170   1.352       .  A
N169        C470   1.349       .  A
N169        C509   1.439       .  S
C170        H171   1.079       .  S
C172        N475   1.338       .  A
C172        H182   1.072       .  S
N173        C174   1.344       .  A
N173        C474   1.338       .  A
N173        C486   1.413       .  S
C174        H180   1.070       .  S
C175        N478   1.339       .  A
C175        H177   1.074       .  S
N176        C178   1.346       .  A
N176        C477   1.338       .  A
N176        C496   1.442       .  S
C178        H179   1.078       .  S
C183        C184   1.401       .  A
C183        C188   1.388       .  A
C183        H190   1.082       .  S
C184        C487   1.395       .  A
C184        N475   1.414       .  S
C185        C486   1.393       .  A
C185        C488   1.377       .  A
C185       Br192   1.909       .  S
C186        C187   1.403       .  A
C186        C487   1.379       .  A
C186        H493   1.080   1_554  S
C187        C188   1.400       .  A
C188       Br189   1.920       .  S
H191        C488   1.078       .  S
C193        C194   1.405       .  A
C193        C198   1.375       .  A
C193        H200   1.132   1_554  S
C194        C195   1.414       .  A
C194        N478   1.441       .  S
C195        C196   1.397       .  A
C195       Br202   1.914       .  S
C196        C197   1.401       .  A
C196        H201   1.082       .  S
C197        C198   1.395       .  A
C198       Br199   1.927   1_554  S
C203        C204   1.403       .  A
C203        C510   1.399       .  A
C203        H512   1.084       .  S
C204        C205   1.415       .  A
C205        C206   1.401       .  A
C205       Br212   1.917       .  S
C206        C207   1.399       .  A
C206        H211   1.082       .  S
C207        C510   1.407       .  A
C207        N471   1.440       .  S
C208        C505   1.399       .  A
C208        C509   1.407       .  A
C208       Br209   1.914       .  S
H210        C505   1.084       .  S
C213        C214   1.411       .  A
C213        C218   1.407       .  A
C213        H220   1.080       .  S
C214        C215   1.405       .  A
C215        C216   1.395       .  A
C215       Br222   1.910       .  S
C216        C217   1.406       .  A
C216        H221   1.085       .  S
C217        C218   1.401       .  A
C218       Br219   1.911       .  S
C223        C224   1.411       .  A
C223        C228   1.408       .  A
C223        H230   1.082       .  S
C224        C225   1.391       .  A
C225        C226   1.388       .  A
C225       Br232   1.913       .  S
C226        C227   1.418       .  A
C226        H231   1.082       .  S
C227        C228   1.404       .  A
C228       Br229   1.912       .  S
C233        C234   1.407       .  A
C233        C238   1.386       .  A
C233        H240   1.083       .  S
C234        C235   1.393       .  A
C235        C236   1.384       .  A
C235       Br242   1.911       .  S
C236        C237   1.408       .  A
C236        H241   1.084       .  S
C237        C238   1.407       .  A
C238       Br239   1.926       .  S
C243        C244   1.407       .  A
C243        C248   1.408       .  A
C243        H250   1.082       .  S
C244        C245   1.406       .  A
C245        C246   1.403       .  A
C245       Br252   1.912       .  S
C246        C247   1.408       .  A
C246        H251   1.083       .  S
C247        C248   1.416       .  A
C248       Br249   1.923       .  S
C253        C254   1.403       .  A
C253        C258   1.393       .  A
C253        H260   1.075       .  S
C254        C255   1.401       .  A
C255        C256   1.383       .  A
C255       Br262   1.899       .  S
C256        C257   1.396       .  A
C256        H261   1.084       .  S
C257        C258   1.397       .  A
C258       Br259   1.918       .  S
C263        C264   1.402       .  A
C263        C268   1.395       .  A
C263        H270   1.082       .  S
C264        C265   1.405       .  A
C265        C266   1.379       .  A
C265       Br272   1.917       .  S
C266        C267   1.391       .  A
C266        H271   1.079       .  S
C267        C268   1.397       .  A
C268       Br269   1.920       .  S
C273        C274   1.399       .  A
C273        C278   1.393       .  A
C273        H582   1.083       .  S
C274        C275   1.398       .  A
C275        C276   1.384       .  A
C275       Br282   1.914       .  S
C276        C277   1.403       .  A
C276        H281   1.084       .  S
C277        C278   1.417       .  A
C278       Br581   1.926       .  S
Br279       C580   1.927       .  S
H280        C575   1.084       .  S
C283        C586   1.389       .  A
C283        C590   1.390       .  A
C283        H290   1.082       .  S
C284        C285   1.414       .  A
C284        C585   1.390       .  A
C284        N319   1.450       .  S
C285        C286   1.419       .  A
C285       Br292   1.916       .  S
C286        C287   1.408       .  A
C286        H291   1.083       .  S
C287        C288   1.434       .  A
C288        C585   1.398       .  A
C288       Br591   1.930       .  S
Br289       C590   1.929       .  S
C293        C294   1.402       .  A
C293        C298   1.392       .  A
C293        H300   1.082       .  S
C294        C597   1.417       .  A
C294        N316   1.451       .  S
C295        C596   1.417       .  A
C295        C598   1.407       .  A
C295       Br302   1.913   1_556  S
C296        C297   1.398       .  A
C296        C597   1.407       .  A
C296        H603   1.082       .  S
C297        C298   1.414       .  A
C298       Br299   1.924       .  S
H301        C598   1.082   1_554  S
C303        C305   1.565       .  S
C303        C307   1.589       .  S
C303        C306   1.584       .  S
C303        C327   1.857       .  S
C304        C308   1.563       .  S
C304        C310   1.598       .  S
C304        C309   1.604       .  S
C304        C326   1.879       .  S
C305        C313   1.376       .  A
C306        C317   1.382       .  A
C307        C321   1.392       .  A
C308        C311   1.358       .  A
C309        C315   1.380       .  A
C310        C318   1.383       .  A
C311        N312   1.342       .  A
C311        H324   1.069       .  S
N312        C576   1.414       .  S
C313        H314   1.079       .  S
C315        H325   1.079       .  S
N316        C317   1.363       .  A
C317        H323   1.081       .  S
C318        H320   1.069       .  S
N319        C321   1.344       .  A
C321        H322   1.069       .  S
C326        C328   1.624       .  S
C326        C330   1.591       .  S
C326        C329   1.572       .  S
C327        C331   1.592       .  S
C327        C333   1.554       .  S
C327        C332   1.568       .  S
C328        C336   1.404       .  A
C328        C331   1.482       .  A
C329        C340   1.374       .  A
C329        C332   1.466       .  A
C330        C344   1.383       .  A
C330        C333   1.467       .  A
C331        C334   1.390       .  A
C332        C338   1.363       .  A
C333        C341   1.367       .  A
C334        N335   1.350       .  A
C334        H347   1.080       .  S
N335        C336   1.353       .  A
N335        C546   1.453       .  S
C336        H337   1.071       .  S
C338        N339   1.352       .  A
C338        H348   1.082       .  S
N339        C340   1.359       .  A
N339        C566   1.418       .  S
C340        H346   1.081       .  S
C341        N342   1.335       .  A
C341        H343   1.076       .  S
N342        C344   1.345       .  A
N342        C556   1.426       .  S
C344        H345   1.075       .  S
N349        N350   1.325       .  A
N349        N355   1.311       .  A
N349       Mn378   2.369       .  S
N350        C357   1.355       .  A
N351        N353   1.312       .  A
N351        N352   1.328       .  A
N351       Mn367   2.389       .  S
N352        C358   1.361       .  A
N353        N354   1.303       .  A
N353       Mn378   2.199       .  S
N354        C358   1.339       .  A
N355        N356   1.303       .  A
N355       Mn367   2.207       .  S
N356        C357   1.337       .  A
C357        C599   1.466       .  S
C358        C519   1.475       .  S
N359       N2177   1.321       .  A
N359        N360   1.312       .  A
N359       Mn389   2.209       .  S
N360        C972   1.344       .  A
N361        N362   1.306       .  A
N361        N363   1.324       .  A
N361       Mn971   2.286       .  S
N362        C369   1.343       .  A
N363        N364   1.317       .  A
N363      Mn1597   2.345   1_455  S
N364        C369   1.352       .  A
N365       N2171   1.320       .  A
N365        N366   1.315       .  A
N365       Mn367   2.273   1_565  S
N366       C1576   1.357       .  A
Mn367       N965   2.289   1_545  S
Mn367     Cl1599   2.506   1_455  S
C368        N964   1.343       .  A
C368       N1574   1.358       .  A
C368       C1029   1.468       .  S
C369        C539   1.453       .  S
N370        N371   1.316       .  A
N370        N376   1.326       .  A
N370      Mn1586   2.288       .  S
N371        C379   1.345       .  A
N372       N2186   1.319       .  A
N372       Mn390   2.215       .  S
N373        C380   1.347       .  A
N374       N2184   1.327       .  A
N374       Mn378   2.241   1_655  S
N375       C2192   1.350       .  A
N376        N377   1.314       .  A
N376       Mn994   2.206   1_545  S
N377        C379   1.349       .  A
Mn378      N1578   2.291   1_455  S
Mn378     Cl1599   2.446   1_455  S
C379        C579   1.463       .  S
C380       N2187   1.349       .  A
C380        C715   1.465       .  S
N381        N382   1.295       .  A
N381        N387   1.310       .  A
N381       Mn389   2.162       .  S
N382        C392   1.329       .  A
N383        N384   1.293       .  A
N383        N385   1.308       .  A
N383       Mn390   2.134       .  S
N384        C393   1.330       .  A
N385        N386   1.332       .  A
N385       Mn389   2.411       .  S
N386        C393   1.363       .  A
N387        N388   1.330       .  A
N387       Mn390   2.400       .  S
N388        C392   1.362       .  A
Mn389      N1571   2.361       .  S
Mn389      Cl995   2.453       .  S
Mn390       N980   2.325       .  S
Mn390      Cl995   2.417       .  S
Cl391     Mn1575   2.513       .  S
Cl391     Mn1586   2.446       .  S
Cl391      Mn993   2.454   1_545  S
Cl391      Mn994   2.469   1_545  S
C392        C589   1.482       .  S
C393        C529   1.475       .  S
N394        N395   1.309       .  A
N394        N400   1.311       .  A
N394       Mn423   2.282       .  S
N395        C402   1.345       .  A
N396        N398   1.305       .  A
N396        N397   1.307       .  A
N396       Mn412   2.271       .  S
N397        C403   1.344       .  A
N398        N399   1.307       .  A
N398       Mn423   2.288       .  S
N399        C403   1.345       .  A
N400        N401   1.312       .  A
N400       Mn412   2.313       .  S
N401        C402   1.346       .  A
C402        C569   1.430       .  S
C403        C489   1.439       .  S
N404       N2222   1.304       .  A
N404       Mn434   2.297       .  S
N405       C1017   1.352       .  A
N406        N407   1.328       .  A
N406        N408   1.320       .  A
N406      Mn1016   2.359       .  S
N407        C414   1.357       .  A
N408        N409   1.322       .  A
N408      Mn1642   2.344   1_455  S
N409        C414   1.350       .  A
N410       N2216   1.304       .  A
N410       Mn412   2.325   1_655  S
N411       C1621   1.349       .  A
Mn412      N1010   2.357   1_545  S
Mn412     Cl1644   2.559   1_455  S
C413       N1009   1.353       .  A
C413       N1619   1.348       .  A
C413        C682   1.466       .  S
C414        C506   1.483       .  S
N415        N416   1.324       .  A
N415        N421   1.323       .  A
N415      Mn1631   2.342       .  S
N416        C424   1.353       .  A
N417       N2231   1.302       .  A
N417        N418   1.322       .  A
N417       Mn435   2.314       .  S
N418        C425   1.354       .  A
N419       N2229   1.302   1_455  A
N419        N420   1.317       .  A
N419       Mn423   2.304   1_565  S
N420       C2237   1.343       .  A
N421        N422   1.331       .  A
N421      Mn1039   2.383   1_545  S
N422        C424   1.359       .  A
Mn423      N1623   2.347   1_455  S
Mn423     Cl1644   2.578   1_455  S
C424        C549   1.494       .  S
C425       N2232   1.342       .  A
C425        C972   1.467       .  S
N426        N427   1.309       .  A
N426        N432   1.306       .  A
N426       Mn434   2.309       .  S
N427        C437   1.349       .  A
N428        N429   1.310       .  A
N428        N430   1.306       .  A
N428       Mn435   2.315       .  S
N429        C438   1.344       .  A
N430        N431   1.307       .  A
N430       Mn434   2.268       .  S
N431        C438   1.342       .  A
N432        N433   1.308       .  A
N432       Mn435   2.279       .  S
N433        C437   1.344       .  A
Mn434      N1616   2.345       .  S
Mn434     Cl1040   2.551       .  S
Mn435      N1025   2.388       .  S
Mn435     Cl1040   2.540       .  S
Cl436     Mn1620   2.559       .  S
Cl436     Mn1631   2.582       .  S
Cl436     Mn1038   2.554   1_545  S
Cl436     Mn1039   2.549   1_545  S
C437        C559   1.436       .  S
C438        C499   1.436       .  S
C439        C441   1.571       .  S
C439        C443   1.600       .  S
C439        C442   1.596       .  S
C439        C463   1.861       .  S
C440        C444   1.569       .  S
C440        C446   1.584       .  S
C440        C445   1.573       .  S
C440        C462   1.864       .  S
C441        C449   1.378       .  A
C441        C444   1.469       .  A
C442        C453   1.381       .  A
C442        C445   1.453       .  A
C443        C457   1.393       .  A
C443        C446   1.484       .  A
C444        C447   1.369       .  A
C445        C451   1.389       .  A
C446        C454   1.371       .  A
C447        N448   1.346       .  A
C447        H460   1.078       .  S
N448        C449   1.348       .  A
N448        C536   1.422       .  S
C449        H450   1.077       .  S
C451        N452   1.352       .  A
C451        H461   1.073       .  S
N452        C453   1.348       .  A
N452        C516   1.449       .  S
C453        H459   1.071       .  S
C454        N455   1.329       .  A
C454        H456   1.145       .  S
N455        C457   1.349       .  A
N455        C526   1.435       .  S
C457        H458   1.077       .  S
C462        C464   1.593   1_556  S
C462        C466   1.581   1_556  S
C462        C465   1.578   1_556  S
C463        C467   1.585       .  S
C463        C469   1.561       .  S
C463        C468   1.570       .  S
C464        C472   1.393   1_554  A
C465        C476   1.367   1_554  A
C466        C480   1.385   1_554  A
C467        C470   1.387       .  A
C468        C474   1.361       .  A
C469        C477   1.369       .  A
C470        H483   1.079       .  S
N471        C472   1.352   1_554  A
C472        H473   1.079       .  S
C474        H484   1.073       .  S
N475        C476   1.344   1_554  A
C476        H482   1.071       .  S
C477        H479   1.074       .  S
N478        C480   1.351   1_554  A
C480        H481   1.072       .  S
C485        C486   1.401       .  A
C485        C490   1.387       .  A
C485        H492   1.081       .  S
C487       Br494   1.908   1_554  S
C488        C489   1.403       .  A
C489        C490   1.401       .  A
C490       Br491   1.922       .  S
C495        C496   1.413       .  A
C495        C500   1.384       .  A
C495        H502   1.060       .  S
C496        C497   1.409       .  A
C497        C498   1.397       .  A
C497       Br504   1.915       .  S
C498        C499   1.402       .  A
C498        H503   1.082       .  S
C499        C500   1.389       .  A
C500       Br501   1.927       .  S
C505        C506   1.403       .  A
C506        C507   1.415       .  A
C507        C508   1.402       .  A
C507       Br514   1.917       .  S
C508        C509   1.399       .  A
C508        H513   1.082       .  S
C510       Br511   1.914       .  S
C515        C516   1.410       .  A
C515        C520   1.407       .  A
C515        H522   1.080       .  S
C516        C517   1.405       .  A
C517        C518   1.396       .  A
C517       Br524   1.910       .  S
C518        C519   1.408       .  A
C518        H523   1.084       .  S
C519        C520   1.404       .  A
C520       Br521   1.909       .  S
C525        C526   1.412       .  A
C525        C530   1.407       .  A
C525        H532   1.082       .  S
C526        C527   1.392       .  A
C527        C528   1.384       .  A
C527       Br534   1.913       .  S
C528        C529   1.415       .  A
C528        H533   1.083       .  S
C529        C530   1.401       .  A
C530       Br531   1.914       .  S
C535        C536   1.407       .  A
C535        C540   1.386       .  A
C535        H542   1.083       .  S
C536        C537   1.392       .  A
C537        C538   1.385       .  A
C537       Br544   1.911       .  S
C538        C539   1.410       .  A
C538        H543   1.084       .  S
C539        C540   1.406       .  A
C540       Br541   1.926       .  S
C545        C546   1.408       .  A
C545        C550   1.413       .  A
C545        H552   1.082       .  S
C546        C547   1.406       .  A
C547        C548   1.400       .  A
C547       Br554   1.911       .  S
C548        C549   1.407       .  A
C548        H553   1.083       .  S
C549        C550   1.417       .  A
C550       Br551   1.922       .  S
C555        C556   1.403       .  A
C555        C560   1.392       .  A
C555        H562   1.075       .  S
C556        C557   1.404       .  A
C557        C558   1.385       .  A
C557       Br564   1.902       .  S
C558        C559   1.397       .  A
C558        H563   1.085       .  S
C559        C560   1.397       .  A
C560       Br561   1.918       .  S
C565        C566   1.403       .  A
C565        C570   1.396       .  A
C565        H572   1.082       .  S
C566        C567   1.404       .  A
C567        C568   1.379       .  A
C567       Br574   1.917       .  S
C568        C569   1.391       .  A
C568        H573   1.077       .  S
C569        C570   1.398       .  A
C570       Br571   1.920       .  S
C575        C576   1.398       .  A
C575        C580   1.392       .  A
C576        C577   1.396       .  A
C577        C578   1.384       .  A
C577       Br584   1.913       .  S
C578        C579   1.404       .  A
C578        H583   1.084       .  S
C579        C580   1.418       .  A
C585        H592   1.083       .  S
C586        C587   1.416       .  A
C587        C588   1.413       .  A
C587       Br594   1.914       .  S
C588        C589   1.404       .  A
C588        H593   1.084       .  S
C589        C590   1.426       .  A
C595        C596   1.402       .  A
C595        C600   1.391       .  A
C595        H602   1.082       .  S
C597       Br604   1.913       .  S
C598        C599   1.398       .  A
C599        C600   1.413       .  A
C600       Br601   1.923       .  S
C605        C607   1.560   1_554  S
C605        C609   1.588   1_554  S
C605        C608   1.584   1_554  S
C605        C629   1.857       .  S
C606        C610   1.563       .  S
C606        C612   1.596       .  S
C606        C611   1.606       .  S
C606        C628   1.878       .  S
C607        C615   1.372   1_556  A
C607        C912   1.463       .  A
C608        C619   1.383   1_556  A
C608        C913   1.473       .  A
C609        C623   1.392       .  A
C609        C914   1.471       .  A
C610        C909   1.463       .  A
C610        C613   1.356       .  A
C611        C910   1.473       .  A
C611        C617   1.381       .  A
C612        C911   1.472       .  A
C612        C620   1.384       .  A
C613        N614   1.341       .  A
C613        H626   1.067       .  S
N614        C917   1.341       .  A
N614        C878   1.414       .  S
C615        N916   1.339   1_554  A
C615        H616   1.079       .  S
C617        N920   1.367       .  A
C617        H627   1.080       .  S
N618        C919   1.367       .  A
N618        C619   1.363   1_556  A
N618       C1200   1.452       .  S
C619        H625   1.081       .  S
C620        N923   1.351       .  A
C620        H622   1.071       .  S
N621        C922   1.351       .  A
N621        C623   1.344       .  A
N621       C1190   1.450       .  S
C623        H624   1.067   1_556  S
C628        C630   1.624       .  S
C628        C632   1.590       .  S
C628        C631   1.570       .  S
C629        C633   1.595       .  S
C629        C635   1.553       .  S
C629        C634   1.566       .  S
C630        C638   1.403       .  A
C630        C633   1.481       .  A
C631        C642   1.373       .  A
C631        C634   1.464       .  A
C632        C646   1.383       .  A
C632        C635   1.468       .  A
C633        C636   1.391       .  A
C634        C640   1.361       .  A
C635        C643   1.366       .  A
C636        N637   1.352       .  A
C636        H649   1.080       .  S
N637        C638   1.354       .  A
N637        C848   1.457       .  S
C638        H639   1.070       .  S
C640        N641   1.351       .  A
C640        H650   1.082       .  S
N641        C642   1.359       .  A
N641        C868   1.416       .  S
C642        H648   1.081       .  S
C643        N644   1.335       .  A
C643        H645   1.076       .  S
N644        C646   1.345       .  A
N644        C858   1.425       .  S
C646        H647   1.075       .  S
N651        N652   1.325       .  A
N651        N657   1.310       .  A
N651       Mn680   2.372       .  S
N652        C659   1.355       .  A
N653        N655   1.311       .  A
N653        N654   1.327       .  A
N653       Mn669   2.382       .  S
N654        C660   1.360       .  A
N655        N656   1.302       .  A
N655       Mn680   2.195       .  S
N656        C660   1.338       .  A
N657        N658   1.304       .  A
N657       Mn669   2.204       .  S
N658        C659   1.337       .  A
C659        C901   1.467       .  S
C660        C821   1.469       .  S
N661       N1271   1.319       .  A
N661        N662   1.312       .  A
N661       Mn691   2.194       .  S
N663        N664   1.307       .  A
N663        N665   1.324       .  A
N664        C671   1.343       .  A
N665        N666   1.317       .  A
N665      Mn1899   2.348   1_455  S
N666        C671   1.352       .  A
N667       N1265   1.320       .  A
N667        N668   1.315       .  A
N667       Mn669   2.268       .  S
N668       C1878   1.357       .  A
Mn669     Cl1901   2.511   1_455  S
C670       N1876   1.358       .  A
C671        C841   1.454       .  S
N672        N673   1.316       .  A
N672        N678   1.325       .  A
N672      Mn1888   2.289       .  S
N673        C681   1.346       .  A
N674       N1280   1.327       .  A
N674        N977   1.317       .  A
N674       Mn692   2.118   1_545  S
N675        C682   1.346   1_556  A
N675        N976   1.317       .  A
N676       N1278   1.328       .  A
N676        N979   1.319       .  A
N676       Mn680   2.239   1_655  S
N677       C1286   1.349   1_556  A
N677        N978   1.319       .  A
N678        N679   1.313       .  A
N679        C681   1.347       .  A
Mn680      N1880   2.293   1_455  S
Mn680     Cl1901   2.448   1_455  S
C681        C881   1.461       .  S
C682       N1281   1.350   1_554  A
N683        N684   1.304       .  A
N683        N689   1.315       .  A
N683       Mn691   2.123       .  S
N684        C694   1.328       .  A
N685        N686   1.296       .  A
N685        N687   1.306       .  A
N685       Mn692   2.066       .  S
N686        C695   1.329       .  A
N687        N688   1.333       .  A
N687       Mn691   2.384       .  S
N688        C695   1.364       .  A
N689        N690   1.342       .  A
N689       Mn692   2.382       .  S
N690        C694   1.371       .  A
Mn691      N1873   2.343       .  S
Cl693     Mn1877   2.509       .  S
Cl693     Mn1888   2.446       .  S
C694        C891   1.508       .  S
C695        C831   1.482       .  S
N696        N697   1.309       .  A
N696        N702   1.310       .  A
N696       Mn725   2.280       .  S
N697        C704   1.344       .  A
N698        N700   1.305       .  A
N698        N699   1.307       .  A
N698       Mn714   2.267       .  S
N699        C705   1.344       .  A
N700        N701   1.308       .  A
N700       Mn725   2.290       .  S
N701        C705   1.347       .  A
N702        N703   1.312       .  A
N702       Mn714   2.311       .  S
N703        C704   1.345       .  A
C704        C871   1.428       .  S
C705        C791   1.438       .  S
N706       N1316   1.304       .  A
N706       N1009   1.321       .  A
N706       Mn736   2.294   1_545  S
N707       N1008   1.320       .  A
N708        N709   1.328       .  A
N708        N710   1.321       .  A
N709        C716   1.357       .  A
N710        N711   1.323       .  A
N710      Mn1944   2.344   1_455  S
N711        C716   1.351       .  A
N712       N1310   1.303       .  A
N712       N1015   1.320       .  A
N712       Mn714   2.328   1_655  S
N713       C1923   1.348       .  A
N713       N1014   1.320       .  A
Mn714     Cl1946   2.554   1_455  S
C715       N1921   1.348       .  A
C716        C808   1.483       .  S
N717        N718   1.324       .  A
N717        N723   1.322       .  A
N717      Mn1933   2.343       .  S
N718        C726   1.354       .  A
N719       N1325   1.302       .  A
N719        N720   1.322       .  A
N719       Mn737   2.316       .  S
N720        C727   1.355       .  A
N721       N1323   1.302   1_455  A
N721        N722   1.317       .  A
N721       Mn725   2.300       .  S
N722       C1331   1.342       .  A
N723        N724   1.331       .  A
N724        C726   1.360       .  A
Mn725      N1925   2.342   1_455  S
Mn725     Cl1946   2.580   1_455  S
C726        C851   1.496       .  S
C727       N1326   1.342       .  A
N728        N729   1.310       .  A
N728        N734   1.306       .  A
N728       Mn736   2.308       .  S
N729        C739   1.349       .  A
N730        N731   1.311       .  A
N730        N732   1.307       .  A
N730       Mn737   2.318       .  S
N731        C740   1.346       .  A
N732        N733   1.306       .  A
N732       Mn736   2.267       .  S
N733        C740   1.342       .  A
N734        N735   1.307       .  A
N734       Mn737   2.277       .  S
N735        C739   1.343       .  A
Mn736      N1918   2.345       .  S
Cl738     Mn1922   2.559       .  S
Cl738     Mn1933   2.581       .  S
C739        C861   1.435       .  S
C740        C801   1.437       .  S
C741        C743   1.575       .  S
C741        C745   1.604       .  S
C741        C744   1.595       .  S
C741        C765   1.864       .  S
C742        C746   1.568       .  S
C742        C748   1.584       .  S
C742        C747   1.574       .  S
C742        C764   1.862       .  S
C743        C751   1.380       .  A
C743        C746   1.467       .  A
C744        C755   1.381       .  A
C744        C747   1.454       .  A
C745        C759   1.395       .  A
C745        C748   1.481       .  A
C746        C749   1.368       .  A
C747        C753   1.389       .  A
C748        C756   1.380       .  A
C749        N750   1.346       .  A
C749        H762   1.078       .  S
N750        C751   1.350       .  A
N750        C838   1.423       .  S
C751        H752   1.076       .  S
C753        N754   1.351       .  A
C753        H763   1.073       .  S
N754        C755   1.348       .  A
N754        C818   1.448       .  S
C755        H761   1.071       .  S
C756        N757   1.336       .  A
C756        H758   1.075       .  S
N757        C759   1.345       .  A
N757        C828   1.435       .  S
C759        H760   1.076       .  S
C764        C766   1.592       .  S
C764        C768   1.578       .  S
C764        C767   1.577       .  S
C765        C769   1.585       .  S
C765        C771   1.559       .  S
C765        C770   1.572       .  S
C766        C774   1.393       .  A
C766       C1071   1.475       .  A
C767        C778   1.364       .  A
C767       C1072   1.464       .  A
C768        C782   1.384       .  A
C768       C1073   1.468       .  A
C769       C1068   1.476       .  A
C769        C772   1.387       .  A
C770       C1069   1.465       .  A
C770        C776   1.363       .  A
C771       C1070   1.469       .  A
C771        C779   1.368       .  A
C772       N1075   1.348       .  A
C772        H785   1.079       .  S
N773       C1074   1.348       .  A
N773        C774   1.352       .  A
N773       C1113   1.440       .  S
C774        H775   1.079       .  S
C776       N1079   1.339       .  A
C776        H786   1.072       .  S
N777       C1078   1.338       .  A
N777        C778   1.343       .  A
N777       C1090   1.412       .  S
C778        H784   1.070       .  S
C779       N1082   1.338       .  A
C779        H781   1.075       .  S
N780       C1081   1.337       .  A
N780        C782   1.347       .  A
N780       C1100   1.442       .  S
C782        H783   1.076       .  S
C787        C788   1.401       .  A
C787        C792   1.386       .  A
C787        H794   1.081       .  S
C788       C1091   1.394       .  A
C788       N1079   1.412       .  S
C789       C1090   1.393       .  A
C789       C1092   1.378       .  A
C789       Br796   1.910       .  S
C790       C1091   1.377       .  A
C790        C791   1.404       .  A
C790       H1097   1.078   1_554  S
C791        C792   1.400       .  A
C792       Br793   1.920       .  S
H795       C1092   1.077       .  S
C797        C798   1.411       .  A
C797        C802   1.381       .  A
C797        H804   1.077   1_554  S
C798        C799   1.409       .  A
C798       N1082   1.443       .  S
C799        C800   1.398       .  A
C799       Br806   1.914       .  S
C800        C801   1.402       .  A
C800        H805   1.082       .  S
C801        C802   1.391       .  A
C802       Br803   1.927   1_554  S
C807        C808   1.403       .  A
C807       C1114   1.398       .  A
C807       H1116   1.084       .  S
C808        C809   1.415       .  A
C809        C810   1.403       .  A
C809       Br816   1.918       .  S
C810        C811   1.400       .  A
C810        H815   1.082       .  S
C811       C1114   1.408       .  A
C811       N1075   1.441       .  S
C812       C1109   1.399       .  A
C812       C1113   1.407       .  A
C812       Br813   1.913       .  S
H814       C1109   1.084       .  S
C817        C818   1.410       .  A
C817        C822   1.406       .  A
C817        H824   1.080       .  S
C818        C819   1.405       .  A
C819        C820   1.394       .  A
C819       Br826   1.909       .  S
C820        C821   1.406       .  A
C820        H825   1.084       .  S
C821        C822   1.401       .  A
C822       Br823   1.909       .  S
C827        C828   1.410       .  A
C827        C832   1.407       .  A
C827        H834   1.082       .  S
C828        C829   1.391       .  A
C829        C830   1.386       .  A
C829       Br836   1.913       .  S
C830        C831   1.417       .  A
C830        H835   1.082       .  S
C831        C832   1.404       .  A
C832       Br833   1.912       .  S
C837        C838   1.407       .  A
C837        C842   1.388       .  A
C837        H844   1.083       .  S
C838        C839   1.393       .  A
C839        C840   1.385       .  A
C839       Br846   1.911       .  S
C840        C841   1.409       .  A
C840        H845   1.084       .  S
C841        C842   1.407       .  A
C842       Br843   1.926       .  S
C847        C848   1.409       .  A
C847        C852   1.409       .  A
C847        H854   1.082       .  S
C848        C849   1.409       .  A
C849        C850   1.404       .  A
C849       Br856   1.911       .  S
C850        C851   1.408       .  A
C850        H855   1.083       .  S
C851        C852   1.416       .  A
C852       Br853   1.921       .  S
C857        C858   1.403       .  A
C857        C862   1.393       .  A
C857        H864   1.076       .  S
C858        C859   1.403       .  A
C859        C860   1.383       .  A
C859       Br866   1.901       .  S
C860        C861   1.396       .  A
C860        H865   1.084       .  S
C861        C862   1.398       .  A
C862       Br863   1.918       .  S
C867        C868   1.402       .  A
C867        C872   1.394       .  A
C867        H874   1.082       .  S
C868        C869   1.404       .  A
C869        C870   1.378       .  A
C869       Br876   1.917       .  S
C870        C871   1.391       .  A
C870        H875   1.077       .  S
C871        C872   1.397       .  A
C872       Br873   1.919       .  S
C877        C878   1.398       .  A
C877        C882   1.392       .  A
C877       H1186   1.083       .  S
C878        C879   1.397       .  A
C879        C880   1.383       .  A
C879       Br886   1.914       .  S
C880        C881   1.403       .  A
C880        H885   1.083       .  S
C881        C882   1.418       .  A
C882      Br1185   1.927       .  S
Br883      C1184   1.928       .  S
H884       C1179   1.083       .  S
C887       C1190   1.388       .  A
C887       C1194   1.397       .  A
C887        H894   1.083       .  S
C888       C1189   1.389       .  A
C888        C889   1.415       .  A
C888        N923   1.449       .  S
C889        C890   1.418       .  A
C889       Br896   1.916       .  S
C890        C891   1.408       .  A
C890        H895   1.083       .  S
C891        C892   1.433       .  A
C892       C1189   1.397       .  A
C892      Br1195   1.928       .  S
Br893      C1194   1.927       .  S
C897        C898   1.402       .  A
C897        C902   1.391       .  A
C897        H904   1.082       .  S
C898       C1201   1.418       .  A
C898        N920   1.451       .  S
C899       C1200   1.418       .  A
C899       C1202   1.408       .  A
C899       Br906   1.913   1_556  S
C900       C1201   1.408       .  A
C900        C901   1.398       .  A
C900       H1207   1.082       .  S
C901        C902   1.413       .  A
C902       Br903   1.923       .  S
H905       C1202   1.082   1_554  S
C907        C909   1.563       .  S
C907        C911   1.589       .  S
C907        C910   1.583       .  S
C907        C931   1.858       .  S
C908        C912   1.566       .  S
C908        C914   1.596       .  S
C908        C913   1.606       .  S
C908        C930   1.878       .  S
C909        C917   1.374       .  A
C910        C921   1.382       .  A
C911        C925   1.393       .  A
C912        C915   1.358       .  A
C913        C919   1.382       .  A
C914        C922   1.386       .  A
C915        N916   1.342       .  A
C915        H928   1.067       .  S
N916       C1180   1.412       .  S
C917        H918   1.079       .  S
C919        H929   1.079       .  S
N920        C921   1.362       .  A
C921        H927   1.081       .  S
C922        H924   1.071       .  S
N923        C925   1.345       .  A
C925        H926   1.068       .  S
C930        C932   1.623       .  S
C930        C934   1.591       .  S
C930        C933   1.571       .  S
C931        C935   1.593       .  S
C931        C937   1.554       .  S
C931        C936   1.567       .  S
C932        C940   1.402       .  A
C932        C935   1.481       .  A
C933        C944   1.374       .  A
C933        C936   1.465       .  A
C934        C948   1.382       .  A
C934        C937   1.469       .  A
C935        C938   1.390       .  A
C936        C942   1.362       .  A
C937        C945   1.368       .  A
C938        N939   1.350       .  A
C938        H951   1.079       .  S
N939        C940   1.352       .  A
N939       C1150   1.452       .  S
C940        H941   1.069       .  S
C942        N943   1.350       .  A
C942        H952   1.081       .  S
N943        C944   1.358       .  A
N943       C1170   1.417       .  S
C944        H950   1.081       .  S
C945        N946   1.335       .  A
C945        H947   1.076       .  S
N946        C948   1.345       .  A
N946       C1160   1.425       .  S
C948        H949   1.076       .  S
N953        N954   1.325       .  A
N953        N959   1.310       .  A
N953       Mn982   2.370       .  S
N954        C961   1.355       .  A
N955        N957   1.312       .  A
N955        N956   1.328       .  A
N955       Mn971   2.386       .  S
N956        C962   1.362       .  A
N957        N958   1.302       .  A
N957       Mn982   2.198       .  S
N958        C962   1.338       .  A
N959        N960   1.304       .  A
N959       Mn971   2.208       .  S
N960        C961   1.338       .  A
C961       C1203   1.467       .  S
C962       C1123   1.474       .  S
N963       N1573   1.319       .  A
N963        N964   1.312       .  A
N963       Mn993   2.199       .  S
N965        N966   1.305       .  A
N965        N967   1.324       .  A
N966        C973   1.343       .  A
N967        N968   1.317       .  A
N967      Mn2201   2.341   1_455  S
N968        C973   1.352       .  A
N969       N1567   1.320       .  A
N969        N970   1.315       .  A
N969       Mn971   2.273       .  S
N970       C2180   1.358       .  A
Mn971     Cl2203   2.514   1_455  S
C972       N2178   1.357       .  A
C973       C1143   1.453       .  S
N974        N975   1.312       .  A
N974        N980   1.324       .  A
N974      Mn2190   2.312       .  S
N975        C983   1.347       .  A
N976       N1582   1.328       .  A
N976       Mn994   2.122   1_545  S
N977        C984   1.346       .  A
N978       N1580   1.328       .  A
N978       Mn982   2.242   1_655  S
N979       C1588   1.349       .  A
N980        N981   1.310       .  A
N981        C983   1.349       .  A
Mn982      N2182   2.289   1_455  S
Mn982     Cl2203   2.442   1_455  S
C983       C1183   1.455       .  S
C984       N1583   1.350       .  A
N985        N986   1.303       .  A
N985        N991   1.315       .  A
N985       Mn993   2.131       .  S
N986        C996   1.328       .  A
N987        N988   1.296       .  A
N987        N989   1.307       .  A
N987       Mn994   2.066       .  S
N988        C997   1.329       .  A
N989        N990   1.334       .  A
N989       Mn993   2.390       .  S
N990        C997   1.364       .  A
N991        N992   1.343       .  A
N991       Mn994   2.385       .  S
N992        C996   1.372       .  A
Mn993      N2175   2.348       .  S
Cl995     Mn2179   2.426       .  S
Cl995     Mn2190   2.449       .  S
C996       C1193   1.511       .  S
C997       C1133   1.483       .  S
N998        N999   1.309       .  A
N998       N1004   1.310       .  A
N998      Mn1027   2.281       .  S
N999       C1006   1.347       .  A
N1000      N1002   1.305       .  A
N1000      N1001   1.308       .  A
N1000     Mn1016   2.274       .  S
N1001      C1007   1.344       .  A
N1002      N1003   1.308       .  A
N1002     Mn1027   2.292       .  S
N1003      C1007   1.346       .  A
N1004      N1005   1.312       .  A
N1004     Mn1016   2.313       .  S
N1005      C1006   1.345       .  A
C1006      C1173   1.431       .  S
C1007      C1093   1.439       .  S
N1008      N1618   1.304       .  A
N1008     Mn1038   2.292   1_545  S
N1010      N1011   1.328       .  A
N1010      N1012   1.321       .  A
N1011      C1018   1.356       .  A
N1012      N1013   1.323       .  A
N1012     Mn2246   2.347   1_455  S
N1013      C1018   1.351       .  A
N1014      N1612   1.304       .  A
N1014     Mn1016   2.329   1_655  S
N1015      C2225   1.348       .  A
Mn1016    Cl2248   2.556   1_455  S
C1017      N2223   1.347       .  A
C1018      C1110   1.483       .  S
N1019      N1020   1.323       .  A
N1019      N1025   1.321       .  A
N1019     Mn2235   2.339       .  S
N1020      C1028   1.353       .  A
N1021      N1627   1.302       .  A
N1021      N1022   1.322       .  A
N1021     Mn1039   2.321       .  S
N1022      C1029   1.355       .  A
N1023      N1625   1.302   1_455  A
N1023      N1024   1.316       .  A
N1023     Mn1027   2.302       .  S
N1024      C1633   1.342       .  A
N1025      N1026   1.330       .  A
N1026      C1028   1.358       .  A
Mn1027     N2227   2.340   1_455  S
Mn1027    Cl2248   2.582   1_455  S
C1028      C1153   1.492       .  S
C1029      N1628   1.341       .  A
N1030      N1031   1.309       .  A
N1030      N1036   1.306       .  A
N1030     Mn1038   2.304       .  S
N1031      C1041   1.350       .  A
N1032      N1033   1.310       .  A
N1032      N1034   1.306       .  A
N1032     Mn1039   2.319       .  S
N1033      C1042   1.344       .  A
N1034      N1035   1.307       .  A
N1034     Mn1038   2.267       .  S
N1035      C1042   1.341       .  A
N1036      N1037   1.309       .  A
N1036     Mn1039   2.281       .  S
N1037      C1041   1.344       .  A
Mn1038     N2220   2.341       .  S
Cl1040    Mn2224   2.554       .  S
Cl1040    Mn2235   2.576       .  S
C1041      C1163   1.435       .  S
C1042      C1103   1.438       .  S
C1043      C1045   1.570       .  S
C1043      C1047   1.603       .  S
C1043      C1046   1.594       .  S
C1043      C1067   1.861       .  S
C1044      C1048   1.569       .  S
C1044      C1050   1.587       .  S
C1044      C1049   1.576       .  S
C1044      C1066   1.865       .  S
C1045      C1053   1.377       .  A
C1045      C1048   1.466       .  A
C1046      C1057   1.379       .  A
C1046      C1049   1.454       .  A
C1047      C1061   1.394       .  A
C1047      C1050   1.480       .  A
C1048      C1051   1.367       .  A
C1049      C1055   1.389       .  A
C1050      C1058   1.382       .  A
C1051      N1052   1.346       .  A
C1051      H1064   1.078       .  S
N1052      C1053   1.349       .  A
N1052      C1140   1.421       .  S
C1053      H1054   1.076       .  S
C1055      N1056   1.352       .  A
C1055      H1065   1.073       .  S
N1056      C1057   1.347       .  A
N1056      C1120   1.447       .  S
C1057      H1063   1.073       .  S
C1058      N1059   1.339       .  A
C1058      H1060   1.070       .  S
N1059      C1061   1.344       .  A
N1059      C1130   1.437       .  S
C1061      H1062   1.076       .  S
C1066      C1068   1.594   1_556  S
C1066      C1070   1.579   1_556  S
C1066      C1069   1.576   1_556  S
C1067      C1071   1.585       .  S
C1067      C1073   1.558       .  S
C1067      C1072   1.572       .  S
C1068      C1076   1.393   1_554  A
C1069      C1080   1.363   1_554  A
C1070      C1084   1.384   1_554  A
C1071      C1074   1.387       .  A
C1072      C1078   1.362       .  A
C1073      C1081   1.368       .  A
C1074      H1087   1.079       .  S
N1075      C1076   1.353   1_554  A
C1076      H1077   1.079       .  S
C1078      H1088   1.073       .  S
N1079      C1080   1.342   1_554  A
C1080      H1086   1.070       .  S
C1081      H1083   1.075       .  S
N1082      C1084   1.348   1_554  A
C1084      H1085   1.076       .  S
C1089      C1090   1.401       .  A
C1089      C1094   1.387       .  A
C1089      H1096   1.082       .  S
C1091     Br1098   1.910   1_554  S
C1092      C1093   1.403       .  A
C1093      C1094   1.400       .  A
C1094     Br1095   1.919       .  S
C1099      C1100   1.411       .  A
C1099      C1104   1.382       .  A
C1099      H1106   1.080       .  S
C1100      C1101   1.409       .  A
C1101      C1102   1.398       .  A
C1101     Br1108   1.915       .  S
C1102      C1103   1.402       .  A
C1102      H1107   1.082       .  S
C1103      C1104   1.391       .  A
C1104     Br1105   1.926       .  S
C1109      C1110   1.403       .  A
C1110      C1111   1.415       .  A
C1111      C1112   1.402       .  A
C1111     Br1118   1.917       .  S
C1112      C1113   1.400       .  A
C1112      H1117   1.082       .  S
C1114     Br1115   1.913       .  S
C1119      C1120   1.410       .  A
C1119      C1124   1.407       .  A
C1119      H1126   1.081       .  S
C1120      C1121   1.404       .  A
C1121      C1122   1.395       .  A
C1121     Br1128   1.910       .  S
C1122      C1123   1.408       .  A
C1122      H1127   1.084       .  S
C1123      C1124   1.402       .  A
C1124     Br1125   1.907       .  S
C1129      C1130   1.412       .  A
C1129      C1134   1.409       .  A
C1129      H1136   1.082       .  S
C1130      C1131   1.393       .  A
C1131      C1132   1.386       .  A
C1131     Br1138   1.913       .  S
C1132      C1133   1.416       .  A
C1132      H1137   1.083       .  S
C1133      C1134   1.403       .  A
C1134     Br1135   1.912       .  S
C1139      C1140   1.408       .  A
C1139      C1144   1.388       .  A
C1139      H1146   1.083       .  S
C1140      C1141   1.390       .  A
C1141      C1142   1.383       .  A
C1141     Br1148   1.911       .  S
C1142      C1143   1.410       .  A
C1142      H1147   1.083       .  S
C1143      C1144   1.406       .  A
C1144     Br1145   1.926       .  S
C1149      C1150   1.409       .  A
C1149      C1154   1.413       .  A
C1149      H1156   1.082       .  S
C1150      C1151   1.406       .  A
C1151      C1152   1.399       .  A
C1151     Br1158   1.911       .  S
C1152      C1153   1.406       .  A
C1152      H1157   1.083       .  S
C1153      C1154   1.416       .  A
C1154     Br1155   1.923       .  S
C1159      C1160   1.403       .  A
C1159      C1164   1.394       .  A
C1159      H1166   1.077       .  S
C1160      C1161   1.402       .  A
C1161      C1162   1.382       .  A
C1161     Br1168   1.899       .  S
C1162      C1163   1.396       .  A
C1162      H1167   1.084       .  S
C1163      C1164   1.397       .  A
C1164     Br1165   1.916       .  S
C1169      C1170   1.403       .  A
C1169      C1174   1.395       .  A
C1169      H1176   1.082       .  S
C1170      C1171   1.403       .  A
C1171      C1172   1.378       .  A
C1171     Br1178   1.916       .  S
C1172      C1173   1.391       .  A
C1172      H1177   1.076       .  S
C1173      C1174   1.398       .  A
C1174     Br1175   1.918       .  S
C1179      C1180   1.399       .  A
C1179      C1184   1.389       .  A
C1180      C1181   1.395       .  A
C1181      C1182   1.381       .  A
C1181     Br1188   1.913       .  S
C1182      C1183   1.403       .  A
C1182      H1187   1.084       .  S
C1183      C1184   1.416       .  A
C1189      H1196   1.083       .  S
C1190      C1191   1.415       .  A
C1191      C1192   1.420       .  A
C1191     Br1198   1.916       .  S
C1192      C1193   1.409       .  A
C1192      H1197   1.083       .  S
C1193      C1194   1.435       .  A
C1199      C1200   1.402       .  A
C1199      C1204   1.392       .  A
C1199      H1206   1.082       .  S
C1201     Br1208   1.914       .  S
C1202      C1203   1.397       .  A
C1203      C1204   1.412       .  A
C1204     Br1205   1.921       .  S
C1209      C1211   1.563   1_554  S
C1209      C1213   1.587   1_554  S
C1209      C1212   1.582   1_554  S
C1209      C1233   1.857       .  S
C1210      C1214   1.567       .  S
C1210      C1216   1.596       .  S
C1210      C1215   1.608       .  S
C1210      C1232   1.878       .  S
C1211      C1219   1.375   1_556  A
C1211      C1516   1.463       .  A
C1212      C1223   1.380   1_556  A
C1212      C1517   1.473       .  A
C1213      C1227   1.391       .  A
C1213      C1518   1.472       .  A
C1214      C1513   1.463       .  A
C1214      C1217   1.359       .  A
C1215      C1514   1.473       .  A
C1215      C1221   1.384       .  A
C1216      C1515   1.470       .  A
C1216      C1224   1.386       .  A
C1217      N1218   1.343       .  A
C1217      H1230   1.068       .  S
N1218      C1521   1.341       .  A
N1218      C1482   1.416       .  S
C1219      N1520   1.342   1_554  A
C1219      H1220   1.079       .  S
C1221      N1524   1.367       .  A
C1221      H1231   1.080       .  S
N1222      C1523   1.367       .  A
N1222      C1223   1.362   1_556  A
N1222      C1804   1.450       .  S
C1223      H1229   1.081       .  S
C1224      N1527   1.351       .  A
C1224      H1226   1.072       .  S
N1225      C1526   1.351       .  A
N1225      C1227   1.343       .  A
N1225      C1794   1.449       .  S
C1227      H1228   1.069   1_556  S
C1232      C1234   1.623       .  S
C1232      C1236   1.592       .  S
C1232      C1235   1.570       .  S
C1233      C1237   1.593       .  S
C1233      C1239   1.557       .  S
C1233      C1238   1.567       .  S
C1234      C1242   1.402       .  A
C1234      C1237   1.481       .  A
C1235      C1246   1.373       .  A
C1235      C1238   1.464       .  A
C1236      C1250   1.384       .  A
C1236      C1239   1.469       .  A
C1237      C1240   1.390       .  A
C1238      C1244   1.363       .  A
C1239      C1247   1.370       .  A
C1240      N1241   1.351       .  A
C1240      H1253   1.079       .  S
N1241      C1242   1.352       .  A
N1241      C1452   1.452       .  S
C1242      H1243   1.070       .  S
C1244      N1245   1.351       .  A
C1244      H1254   1.082       .  S
N1245      C1246   1.358       .  A
N1245      C1472   1.417       .  S
C1246      H1252   1.081       .  S
C1247      N1248   1.336       .  A
C1247      H1249   1.076       .  S
N1248      C1250   1.346       .  A
N1248      C1462   1.428       .  S
C1250      H1251   1.075       .  S
N1255      N1256   1.325       .  A
N1255      N1261   1.310       .  A
N1255     Mn1284   2.375       .  S
N1256      C1263   1.355       .  A
N1257      N1259   1.312       .  A
N1257      N1258   1.328       .  A
N1257     Mn1273   2.385       .  S
N1258      C1264   1.361       .  A
N1259      N1260   1.302       .  A
N1259     Mn1284   2.199       .  S
N1260      C1264   1.338       .  A
N1261      N1262   1.304       .  A
N1261     Mn1273   2.206       .  S
N1262      C1263   1.337       .  A
C1263      C1505   1.468       .  S
C1264      C1425   1.474       .  S
N1265      N1266   1.312       .  A
N1265     Mn1295   2.203   1_455  S
N1266      C1878   1.344       .  A
N1267      N1268   1.306       .  A
N1267      N1269   1.324       .  A
N1267     Mn1877   2.286       .  S
N1268      C1275   1.343       .  A
N1269      N1270   1.317       .  A
N1270      C1275   1.352       .  A
N1271      N1272   1.315       .  A
N1271     Mn1273   2.272   1_565  S
Mn1273     N1871   2.287   1_545  S
C1274      N1870   1.343       .  A
C1274      C1935   1.467       .  S
C1275      C1445   1.453       .  S
N1276      N1277   1.315       .  A
N1276      N1282   1.325       .  A
N1277      C1285   1.346       .  A
N1278      N1581   1.317       .  A
N1278     Mn1296   2.121       .  S
N1279      C1286   1.347   1_556  A
N1279      N1580   1.317       .  A
N1280      N1583   1.319       .  A
N1280     Mn1284   2.242       .  S
N1281      N1582   1.319       .  A
N1282      N1283   1.314       .  A
N1282     Mn1900   2.200   1_545  S
N1283      C1285   1.348       .  A
C1285      C1485   1.465       .  S
C1286      C2225   1.466       .  S
N1287      N1288   1.304       .  A
N1287      N1293   1.315       .  A
N1287     Mn1295   2.130       .  S
N1288      C1298   1.328       .  A
N1289      N1290   1.296       .  A
N1289      N1291   1.306       .  A
N1289     Mn1296   2.066       .  S
N1290      C1299   1.329       .  A
N1291      N1292   1.333       .  A
N1291     Mn1295   2.388       .  S
N1292      C1299   1.364       .  A
N1293      N1294   1.343       .  A
N1293     Mn1296   2.386       .  S
N1294      C1298   1.372       .  A
Mn1295    Cl1901   2.456       .  S
Mn1296     N1886   2.198       .  S
Mn1296    Cl1901   2.466       .  S
Cl1297    Mn1899   2.455   1_545  S
Cl1297    Mn1900   2.467   1_545  S
C1298      C1495   1.511       .  S
C1299      C1435   1.482       .  S
N1300      N1301   1.309       .  A
N1300      N1306   1.311       .  A
N1300     Mn1329   2.281       .  S
N1301      C1308   1.346       .  A
N1302      N1304   1.305       .  A
N1302      N1303   1.307       .  A
N1302     Mn1318   2.272       .  S
N1303      C1309   1.345       .  A
N1304      N1305   1.307       .  A
N1304     Mn1329   2.289       .  S
N1305      C1309   1.346       .  A
N1306      N1307   1.311       .  A
N1306     Mn1318   2.312       .  S
N1307      C1308   1.345       .  A
C1308      C1475   1.430       .  S
C1309      C1395   1.440       .  S
N1310      N1613   1.321       .  A
N1310     Mn1340   2.297       .  S
N1311      C1923   1.352       .  A
N1311      N1612   1.321       .  A
N1312      N1313   1.328       .  A
N1312      N1314   1.321       .  A
N1312     Mn1922   2.364       .  S
N1313      C1320   1.358       .  A
N1314      N1315   1.323       .  A
N1315      C1320   1.351       .  A
N1316      N1619   1.320       .  A
N1316     Mn1318   2.330       .  S
N1317      N1618   1.319       .  A
Mn1318     N1916   2.362   1_545  S
C1319      N1915   1.353       .  A
C1319      C2192   1.465       .  S
C1320      C1412   1.485       .  S
N1321      N1322   1.323       .  A
N1321      N1327   1.322       .  A
N1322      C1330   1.352       .  A
N1323      N1324   1.321   1_655  A
N1323     Mn1341   2.311       .  S
N1324      C1331   1.354       .  A
N1325      N1326   1.316       .  A
N1325     Mn1329   2.301   1_565  S
N1327      N1328   1.332       .  A
N1327     Mn1945   2.389   1_545  S
N1328      C1330   1.360       .  A
C1330      C1455   1.494       .  S
C1331      C1878   1.467       .  S
N1332      N1333   1.310       .  A
N1332      N1338   1.306       .  A
N1332     Mn1340   2.309       .  S
N1333      C1343   1.349       .  A
N1334      N1335   1.310       .  A
N1334      N1336   1.306       .  A
N1334     Mn1341   2.315       .  S
N1335      C1344   1.345       .  A
N1336      N1337   1.306       .  A
N1336     Mn1340   2.266       .  S
N1337      C1344   1.342       .  A
N1338      N1339   1.308       .  A
N1338     Mn1341   2.283       .  S
N1339      C1343   1.343       .  A
Mn1340    Cl1946   2.555       .  S
Mn1341     N1931   2.380       .  S
Mn1341    Cl1946   2.550       .  S
Cl1342    Mn1944   2.554   1_545  S
Cl1342    Mn1945   2.547   1_545  S
C1343      C1465   1.439       .  S
C1344      C1405   1.436       .  S
C1345      C1347   1.571       .  S
C1345      C1349   1.601       .  S
C1345      C1348   1.593       .  S
C1345      C1369   1.862       .  S
C1346      C1350   1.571       .  S
C1346      C1352   1.589       .  S
C1346      C1351   1.574       .  S
C1346      C1368   1.865       .  S
C1347      C1355   1.377       .  A
C1347      C1350   1.467       .  A
C1348      C1359   1.379       .  A
C1348      C1351   1.453       .  A
C1349      C1363   1.393       .  A
C1349      C1352   1.480       .  A
C1350      C1353   1.368       .  A
C1351      C1357   1.387       .  A
C1352      C1360   1.386       .  A
C1353      N1354   1.347       .  A
C1353      H1366   1.078       .  S
N1354      C1355   1.349       .  A
N1354      C1442   1.422       .  S
C1355      H1356   1.076       .  S
C1357      N1358   1.351       .  A
C1357      H1367   1.073       .  S
N1358      C1359   1.347       .  A
N1358      C1422   1.447       .  S
C1359      H1365   1.071       .  S
C1360      N1361   1.340       .  A
C1360      H1362   1.055       .  S
N1361      C1363   1.342       .  A
N1361      C1432   1.437       .  S
C1363      H1364   1.076       .  S
C1368      C1370   1.593       .  S
C1368      C1372   1.577       .  S
C1368      C1371   1.580       .  S
C1369      C1373   1.585       .  S
C1369      C1375   1.562       .  S
C1369      C1374   1.572       .  S
C1370      C1378   1.393       .  A
C1370      C1675   1.475       .  A
C1371      C1382   1.367       .  A
C1371      C1676   1.465       .  A
C1372      C1386   1.383       .  A
C1372      C1677   1.469       .  A
C1373      C1672   1.474       .  A
C1373      C1376   1.387       .  A
C1374      C1673   1.464       .  A
C1374      C1380   1.363       .  A
C1375      C1674   1.470       .  A
C1375      C1383   1.371       .  A
C1376      N1679   1.349       .  A
C1376      H1389   1.079       .  S
N1377      C1678   1.347       .  A
N1377      C1378   1.353       .  A
N1377      C1717   1.440       .  S
C1378      H1379   1.079       .  S
C1380      N1683   1.339       .  A
C1380      H1390   1.073       .  S
N1381      C1682   1.339       .  A
N1381      C1382   1.344       .  A
N1381      C1694   1.415       .  S
C1382      H1388   1.070       .  S
C1383      N1686   1.338       .  A
C1383      H1385   1.075       .  S
N1384      C1685   1.338       .  A
N1384      C1386   1.346       .  A
N1384      C1704   1.442       .  S
C1386      H1387   1.078       .  S
C1391      C1392   1.401       .  A
C1391      C1396   1.387       .  A
C1391      H1398   1.081       .  S
C1392      C1695   1.393       .  A
C1392      N1683   1.413       .  S
C1393      C1694   1.395       .  A
C1393      C1696   1.378       .  A
C1393     Br1400   1.909       .  S
C1394      C1695   1.377       .  A
C1394      C1395   1.403       .  A
C1394      H1701   1.077   1_554  S
C1395      C1396   1.401       .  A
C1396     Br1397   1.920       .  S
H1399      C1696   1.077       .  S
C1401      C1402   1.413       .  A
C1401      C1406   1.383       .  A
C1401      H1408   1.060   1_554  S
C1402      C1403   1.408       .  A
C1402      N1686   1.442       .  S
C1403      C1404   1.397       .  A
C1403     Br1410   1.913       .  S
C1404      C1405   1.402       .  A
C1404      H1409   1.082       .  S
C1405      C1406   1.390       .  A
C1406     Br1407   1.927   1_554  S
C1411      C1412   1.404       .  A
C1411      C1718   1.399       .  A
C1411      H1720   1.083       .  S
C1412      C1413   1.416       .  A
C1413      C1414   1.403       .  A
C1413     Br1420   1.917       .  S
C1414      C1415   1.399       .  A
C1414      H1419   1.082       .  S
C1415      C1718   1.407       .  A
C1415      N1679   1.441       .  S
C1416      C1713   1.398       .  A
C1416      C1717   1.408       .  A
C1416     Br1417   1.913       .  S
H1418      C1713   1.084       .  S
C1421      C1422   1.409       .  A
C1421      C1426   1.406       .  A
C1421      H1428   1.080       .  S
C1422      C1423   1.404       .  A
C1423      C1424   1.395       .  A
C1423     Br1430   1.910       .  S
C1424      C1425   1.408       .  A
C1424      H1429   1.084       .  S
C1425      C1426   1.402       .  A
C1426     Br1427   1.907       .  S
C1431      C1432   1.411       .  A
C1431      C1436   1.408       .  A
C1431      H1438   1.082       .  S
C1432      C1433   1.393       .  A
C1433      C1434   1.387       .  A
C1433     Br1440   1.913       .  S
C1434      C1435   1.416       .  A
C1434      H1439   1.082       .  S
C1435      C1436   1.403       .  A
C1436     Br1437   1.912       .  S
C1441      C1442   1.407       .  A
C1441      C1446   1.388       .  A
C1441      H1448   1.083       .  S
C1442      C1443   1.392       .  A
C1443      C1444   1.384       .  A
C1443     Br1450   1.911       .  S
C1444      C1445   1.409       .  A
C1444      H1449   1.084       .  S
C1445      C1446   1.407       .  A
C1446     Br1447   1.926       .  S
C1451      C1452   1.408       .  A
C1451      C1456   1.412       .  A
C1451      H1458   1.082       .  S
C1452      C1453   1.406       .  A
C1453      C1454   1.400       .  A
C1453     Br1460   1.912       .  S
C1454      C1455   1.407       .  A
C1454      H1459   1.083       .  S
C1455      C1456   1.416       .  A
C1456     Br1457   1.921       .  S
C1461      C1462   1.403       .  A
C1461      C1466   1.394       .  A
C1461      H1468   1.077       .  S
C1462      C1463   1.403       .  A
C1463      C1464   1.385       .  A
C1463     Br1470   1.901       .  S
C1464      C1465   1.397       .  A
C1464      H1469   1.084       .  S
C1465      C1466   1.398       .  A
C1466     Br1467   1.917       .  S
C1471      C1472   1.403       .  A
C1471      C1476   1.396       .  A
C1471      H1478   1.082       .  S
C1472      C1473   1.403       .  A
C1473      C1474   1.378       .  A
C1473     Br1480   1.917       .  S
C1474      C1475   1.390       .  A
C1474      H1479   1.074       .  S
C1475      C1476   1.398       .  A
C1476     Br1477   1.919       .  S
C1481      C1482   1.398       .  A
C1481      C1486   1.391       .  A
C1481      H1790   1.083       .  S
C1482      C1483   1.396       .  A
C1483      C1484   1.386       .  A
C1483     Br1490   1.913       .  S
C1484      C1485   1.406       .  A
C1484      H1489   1.084       .  S
C1485      C1486   1.418       .  A
C1486     Br1789   1.927       .  S
Br1487     C1788   1.927       .  S
H1488      C1783   1.083       .  S
C1491      C1794   1.388       .  A
C1491      C1798   1.396       .  A
C1491      H1498   1.083       .  S
C1492      C1793   1.389       .  A
C1492      C1493   1.415       .  A
C1492      N1527   1.450       .  S
C1493      C1494   1.420       .  A
C1493     Br1500   1.916       .  S
C1494      C1495   1.409       .  A
C1494      H1499   1.083       .  S
C1495      C1496   1.434       .  A
C1496      C1793   1.397       .  A
C1496     Br1799   1.928       .  S
Br1497     C1798   1.926       .  S
C1501      C1502   1.402       .  A
C1501      C1506   1.392       .  A
C1501      H1508   1.082       .  S
C1502      C1805   1.418       .  A
C1502      N1524   1.452       .  S
C1503      C1804   1.418       .  A
C1503      C1806   1.408       .  A
C1503     Br1510   1.914   1_556  S
C1504      C1805   1.408       .  A
C1504      C1505   1.398       .  A
C1504      H1811   1.082       .  S
C1505      C1506   1.413       .  A
C1506     Br1507   1.922       .  S
H1509      C1806   1.083   1_554  S
C1511      C1513   1.562       .  S
C1511      C1515   1.588       .  S
C1511      C1514   1.582       .  S
C1511      C1535   1.855       .  S
C1512      C1516   1.563       .  S
C1512      C1518   1.599       .  S
C1512      C1517   1.606       .  S
C1512      C1534   1.880       .  S
C1513      C1521   1.374       .  A
C1514      C1525   1.381       .  A
C1515      C1529   1.392       .  A
C1516      C1519   1.355       .  A
C1517      C1523   1.381       .  A
C1518      C1526   1.386       .  A
C1519      N1520   1.341       .  A
C1519      H1532   1.067       .  S
N1520      C1784   1.414       .  S
C1521      H1522   1.079       .  S
C1523      H1533   1.080       .  S
N1524      C1525   1.362       .  A
C1525      H1531   1.081       .  S
C1526      H1528   1.070       .  S
N1527      C1529   1.344       .  A
C1529      H1530   1.068       .  S
C1534      C1536   1.625       .  S
C1534      C1538   1.590       .  S
C1534      C1537   1.571       .  S
C1535      C1539   1.592       .  S
C1535      C1541   1.553       .  S
C1535      C1540   1.568       .  S
C1536      C1544   1.404       .  A
C1536      C1539   1.481       .  A
C1537      C1548   1.374       .  A
C1537      C1540   1.465       .  A
C1538      C1552   1.382       .  A
C1538      C1541   1.468       .  A
C1539      C1542   1.389       .  A
C1540      C1546   1.363       .  A
C1541      C1549   1.368       .  A
C1542      N1543   1.350       .  A
C1542      H1555   1.080       .  S
N1543      C1544   1.354       .  A
N1543      C1754   1.455       .  S
C1544      H1545   1.070       .  S
C1546      N1547   1.351       .  A
C1546      H1556   1.082       .  S
N1547      C1548   1.359       .  A
N1547      C1774   1.418       .  S
C1548      H1554   1.082       .  S
C1549      N1550   1.334       .  A
C1549      H1551   1.076       .  S
N1550      C1552   1.344       .  A
N1550      C1764   1.425       .  S
C1552      H1553   1.075       .  S
N1557      N1558   1.325       .  A
N1557      N1563   1.310       .  A
N1557     Mn1586   2.368       .  S
N1558      C1565   1.355       .  A
N1559      N1561   1.312       .  A
N1559      N1560   1.327       .  A
N1559     Mn1575   2.378       .  S
N1560      C1566   1.360       .  A
N1561      N1562   1.302       .  A
N1561     Mn1586   2.202       .  S
N1562      C1566   1.339       .  A
N1563      N1564   1.304       .  A
N1563     Mn1575   2.211       .  S
N1564      C1565   1.338       .  A
C1565      C1807   1.467       .  S
C1566      C1727   1.472       .  S
N1567      N1568   1.312       .  A
N1567     Mn1597   2.197   1_455  S
N1568      C2180   1.343       .  A
N1569      N1570   1.306       .  A
N1569      N1571   1.326       .  A
N1569     Mn2179   2.287       .  S
N1570      C1577   1.342       .  A
N1571      N1572   1.319       .  A
N1572      C1577   1.353       .  A
N1573      N1574   1.315       .  A
N1573     Mn1575   2.273   1_565  S
Mn1575     N2173   2.280   1_545  S
C1576      N2172   1.344       .  A
C1576      C2237   1.467       .  S
C1577      C1747   1.455       .  S
N1578      N1579   1.316       .  A
N1578      N1584   1.325       .  A
N1579      C1587   1.346       .  A
N1580     Mn1598   2.123       .  S
N1581      C1588   1.347       .  A
N1582     Mn1586   2.244       .  S
N1584      N1585   1.313       .  A
N1584     Mn2202   2.198   1_545  S
N1585      C1587   1.347       .  A
C1587      C1787   1.461       .  S
C1588      C1923   1.465       .  S
N1589      N1590   1.304       .  A
N1589      N1595   1.316       .  A
N1589     Mn1597   2.129       .  S
N1590      C1600   1.329       .  A
N1591      N1592   1.297       .  A
N1591      N1593   1.306       .  A
N1591     Mn1598   2.068       .  S
N1592      C1601   1.329       .  A
N1593      N1594   1.333       .  A
N1593     Mn1597   2.386       .  S
N1594      C1601   1.364       .  A
N1595      N1596   1.342       .  A
N1595     Mn1598   2.383       .  S
N1596      C1600   1.371       .  A
Mn1597    Cl2203   2.453       .  S
Mn1598     N2188   2.196       .  S
Mn1598    Cl2203   2.468       .  S
Cl1599    Mn2201   2.458   1_545  S
Cl1599    Mn2202   2.463   1_545  S
C1600      C1797   1.509       .  S
C1601      C1737   1.482       .  S
N1602      N1603   1.309       .  A
N1602      N1608   1.311       .  A
N1602     Mn1631   2.285       .  S
N1603      C1610   1.346       .  A
N1604      N1606   1.305       .  A
N1604      N1605   1.307       .  A
N1604     Mn1620   2.270       .  S
N1605      C1611   1.344       .  A
N1606      N1607   1.307       .  A
N1606     Mn1631   2.289       .  S
N1607      C1611   1.346       .  A
N1608      N1609   1.312       .  A
N1608     Mn1620   2.314       .  S
N1609      C1610   1.345       .  A
C1610      C1777   1.431       .  S
C1611      C1697   1.441       .  S
N1612     Mn1642   2.296       .  S
N1613      C2225   1.352       .  A
N1614      N1615   1.328       .  A
N1614      N1616   1.321       .  A
N1614     Mn2224   2.357       .  S
N1615      C1622   1.356       .  A
N1616      N1617   1.323       .  A
N1617      C1622   1.350       .  A
N1618     Mn1620   2.325       .  S
Mn1620     N2218   2.356   1_545  S
C1621      N2217   1.351       .  A
C1621      C1890   1.465       .  S
C1622      C1714   1.481       .  S
N1623      N1624   1.325       .  A
N1623      N1629   1.322       .  A
N1624      C1632   1.355       .  A
N1625      N1626   1.321   1_655  A
N1625     Mn1643   2.314       .  S
N1626      C1633   1.354       .  A
N1627      N1628   1.317       .  A
N1627     Mn1631   2.299   1_565  S
N1629      N1630   1.330       .  A
N1629     Mn2247   2.379   1_545  S
N1630      C1632   1.358       .  A
C1632      C1757   1.496       .  S
C1633      C2180   1.467       .  S
N1634      N1635   1.310       .  A
N1634      N1640   1.306       .  A
N1634     Mn1642   2.306       .  S
N1635      C1645   1.349       .  A
N1636      N1637   1.309       .  A
N1636      N1638   1.307       .  A
N1636     Mn1643   2.316       .  S
N1637      C1646   1.344       .  A
N1638      N1639   1.307       .  A
N1638     Mn1642   2.269       .  S
N1639      C1646   1.343       .  A
N1640      N1641   1.308       .  A
N1640     Mn1643   2.283       .  S
N1641      C1645   1.343       .  A
Mn1642    Cl2248   2.555       .  S
Mn1643     N2233   2.382       .  S
Mn1643    Cl2248   2.550       .  S
Cl1644    Mn2246   2.556   1_545  S
Cl1644    Mn2247   2.549   1_545  S
C1645      C1767   1.436       .  S
C1646      C1707   1.436       .  S
C1647      C1649   1.575       .  S
C1647      C1651   1.600       .  S
C1647      C1650   1.594       .  S
C1647      C1671   1.863       .  S
C1648      C1652   1.569       .  S
C1648      C1654   1.587       .  S
C1648      C1653   1.576       .  S
C1648      C1670   1.864       .  S
C1649      C1657   1.379       .  A
C1649      C1652   1.466       .  A
C1650      C1661   1.380       .  A
C1650      C1653   1.454       .  A
C1651      C1665   1.394       .  A
C1651      C1654   1.479       .  A
C1652      C1655   1.367       .  A
C1653      C1659   1.389       .  A
C1654      C1662   1.385       .  A
C1655      N1656   1.346       .  A
C1655      H1668   1.078       .  S
N1656      C1657   1.350       .  A
N1656      C1744   1.423       .  S
C1657      H1658   1.076       .  S
C1659      N1660   1.352       .  A
C1659      H1669   1.073       .  S
N1660      C1661   1.348       .  A
N1660      C1724   1.448       .  S
C1661      H1667   1.071       .  S
C1662      N1663   1.341       .  A
C1662      H1664   1.039       .  S
N1663      C1665   1.341       .  A
N1663      C1734   1.436       .  S
C1665      H1666   1.077       .  S
C1670      C1672   1.592   1_556  S
C1670      C1674   1.578   1_556  S
C1670      C1673   1.577   1_556  S
C1671      C1675   1.582       .  S
C1671      C1677   1.559       .  S
C1671      C1676   1.573       .  S
C1672      C1680   1.393   1_554  A
C1673      C1684   1.365   1_554  A
C1674      C1688   1.384   1_554  A
C1675      C1678   1.386       .  A
C1676      C1682   1.363       .  A
C1677      C1685   1.369       .  A
C1678      H1691   1.079       .  S
N1679      C1680   1.352   1_554  A
C1680      H1681   1.079       .  S
C1682      H1692   1.073       .  S
N1683      C1684   1.344   1_554  A
C1684      H1690   1.070       .  S
C1685      H1687   1.076       .  S
N1686      C1688   1.346   1_554  A
C1688      H1689   1.078       .  S
C1693      C1694   1.402       .  A
C1693      C1698   1.387       .  A
C1693      H1700   1.081       .  S
C1695     Br1702   1.909   1_554  S
C1696      C1697   1.403       .  A
C1697      C1698   1.401       .  A
C1698     Br1699   1.923       .  S
C1703      C1704   1.413       .  A
C1703      C1708   1.383       .  A
C1703      H1710   1.070       .  S
C1704      C1705   1.407       .  A
C1705      C1706   1.397       .  A
C1705     Br1712   1.913       .  S
C1706      C1707   1.402       .  A
C1706      H1711   1.082       .  S
C1707      C1708   1.389       .  A
C1708     Br1709   1.926       .  S
C1713      C1714   1.402       .  A
C1714      C1715   1.415       .  A
C1715      C1716   1.402       .  A
C1715     Br1722   1.919       .  S
C1716      C1717   1.400       .  A
C1716      H1721   1.082       .  S
C1718     Br1719   1.914       .  S
C1723      C1724   1.410       .  A
C1723      C1728   1.407       .  A
C1723      H1730   1.080       .  S
C1724      C1725   1.405       .  A
C1725      C1726   1.394       .  A
C1725     Br1732   1.910       .  S
C1726      C1727   1.407       .  A
C1726      H1731   1.084       .  S
C1727      C1728   1.403       .  A
C1728     Br1729   1.910       .  S
C1733      C1734   1.411       .  A
C1733      C1738   1.408       .  A
C1733      H1740   1.082       .  S
C1734      C1735   1.393       .  A
C1735      C1736   1.387       .  A
C1735     Br1742   1.913       .  S
C1736      C1737   1.416       .  A
C1736      H1741   1.083       .  S
C1737      C1738   1.403       .  A
C1738     Br1739   1.912       .  S
C1743      C1744   1.407       .  A
C1743      C1748   1.388       .  A
C1743      H1750   1.083       .  S
C1744      C1745   1.393       .  A
C1745      C1746   1.385       .  A
C1745     Br1752   1.911       .  S
C1746      C1747   1.410       .  A
C1746      H1751   1.083       .  S
C1747      C1748   1.407       .  A
C1748     Br1749   1.926       .  S
C1753      C1754   1.408       .  A
C1753      C1758   1.410       .  A
C1753      H1760   1.082       .  S
C1754      C1755   1.408       .  A
C1755      C1756   1.404       .  A
C1755     Br1762   1.911       .  S
C1756      C1757   1.408       .  A
C1756      H1761   1.083       .  S
C1757      C1758   1.417       .  A
C1758     Br1759   1.922       .  S
C1763      C1764   1.403       .  A
C1763      C1768   1.393       .  A
C1763      H1770   1.076       .  S
C1764      C1765   1.402       .  A
C1765      C1766   1.384       .  A
C1765     Br1772   1.902       .  S
C1766      C1767   1.397       .  A
C1766      H1771   1.084       .  S
C1767      C1768   1.398       .  A
C1768     Br1769   1.919       .  S
C1773      C1774   1.403       .  A
C1773      C1778   1.396       .  A
C1773      H1780   1.082       .  S
C1774      C1775   1.404       .  A
C1775      C1776   1.378       .  A
C1775     Br1782   1.917       .  S
C1776      C1777   1.390       .  A
C1776      H1781   1.077       .  S
C1777      C1778   1.398       .  A
C1778     Br1779   1.918       .  S
C1783      C1784   1.398       .  A
C1783      C1788   1.392       .  A
C1784      C1785   1.398       .  A
C1785      C1786   1.383       .  A
C1785     Br1792   1.914       .  S
C1786      C1787   1.402       .  A
C1786      H1791   1.084       .  S
C1787      C1788   1.418       .  A
C1793      H1800   1.083       .  S
C1794      C1795   1.415       .  A
C1795      C1796   1.420       .  A
C1795     Br1802   1.917       .  S
C1796      C1797   1.409       .  A
C1796      H1801   1.083       .  S
C1797      C1798   1.433       .  A
C1803      C1804   1.401       .  A
C1803      C1808   1.390       .  A
C1803      H1810   1.082       .  S
C1805     Br1812   1.913       .  S
C1806      C1807   1.399       .  A
C1807      C1808   1.413       .  A
C1808     Br1809   1.922       .  S
C1813      C1815   1.565   1_554  S
C1813      C1817   1.589   1_554  S
C1813      C1816   1.581   1_554  S
C1813      C1837   1.857       .  S
C1814      C1818   1.568       .  S
C1814      C1820   1.596       .  S
C1814      C1819   1.608       .  S
C1814      C1836   1.880       .  S
C1815      C1823   1.374   1_556  A
C1815      C2120   1.465       .  A
C1816      C1827   1.380   1_556  A
C1816      C2121   1.473       .  A
C1817      C1831   1.391       .  A
C1817      C2122   1.470       .  A
C1818      C2117   1.463       .  A
C1818      C1821   1.358       .  A
C1819      C2118   1.473       .  A
C1819      C1825   1.382       .  A
C1820      C2119   1.471       .  A
C1820      C1828   1.385       .  A
C1821      N1822   1.343       .  A
C1821      H1834   1.068       .  S
N1822      C2125   1.341       .  A
N1822      C2086   1.416       .  S
C1823      N2124   1.340   1_554  A
C1823      H1824   1.079       .  S
C1825      N2128   1.367       .  A
C1825      H1835   1.078       .  S
N1826      C2127   1.367       .  A
N1826      C1827   1.361   1_556  A
N1826      C2408   1.451       .  S
C1827      H1833   1.081       .  S
C1828      N2131   1.351       .  A
C1828      H1830   1.070       .  S
N1829      C2130   1.350       .  A
N1829      C1831   1.344       .  A
N1829      C2398   1.447       .  S
C1831      H1832   1.068   1_556  S
C1836      C1838   1.621       .  S
C1836      C1840   1.594       .  S
C1836      C1839   1.569       .  S
C1837      C1841   1.592       .  S
C1837      C1843   1.554       .  S
C1837      C1842   1.567       .  S
C1838      C1846   1.401       .  A
C1838      C1841   1.481       .  A
C1839      C1850   1.372       .  A
C1839      C1842   1.465       .  A
C1840      C1854   1.385       .  A
C1840      C1843   1.470       .  A
C1841      C1844   1.388       .  A
C1842      C1848   1.362       .  A
C1843      C1851   1.367       .  A
C1844      N1845   1.350       .  A
C1844      H1857   1.080       .  S
N1845      C1846   1.353       .  A
N1845      C2056   1.453       .  S
C1846      H1847   1.070       .  S
C1848      N1849   1.351       .  A
C1848      H1858   1.081       .  S
N1849      C1850   1.358       .  A
N1849      C2076   1.416       .  S
C1850      H1856   1.081       .  S
C1851      N1852   1.334       .  A
C1851      H1853   1.076       .  S
N1852      C1854   1.346       .  A
N1852      C2066   1.427       .  S
C1854      H1855   1.075       .  S
N1859      N1860   1.325       .  A
N1859      N1865   1.310       .  A
N1859     Mn1888   2.368       .  S
N1860      C1867   1.355       .  A
N1861      N1863   1.312       .  A
N1861      N1862   1.328       .  A
N1861     Mn1877   2.387       .  S
N1862      C1868   1.361       .  A
N1863      N1864   1.303       .  A
N1863     Mn1888   2.197       .  S
N1864      C1868   1.338       .  A
N1865      N1866   1.304       .  A
N1865     Mn1877   2.212       .  S
N1866      C1867   1.337       .  A
C1867      C2109   1.467       .  S
C1868      C2029   1.472       .  S
N1869      N1870   1.312       .  A
N1869     Mn1899   2.197   1_455  S
N1871      N1872   1.307       .  A
N1871      N1873   1.324       .  A
N1872      C1879   1.343       .  A
N1873      N1874   1.316       .  A
N1874      C1879   1.351       .  A
N1875      N1876   1.315       .  A
N1875     Mn1877   2.276       .  S
C1879      C2049   1.453       .  S
N1880      N1881   1.317       .  A
N1880      N1886   1.325       .  A
N1881      C1889   1.346       .  A
N1882      N2185   1.317       .  A
N1882     Mn1900   2.124   1_545  S
N1883      C1890   1.347   1_556  A
N1883      N2184   1.317       .  A
N1884      N2187   1.318       .  A
N1884     Mn1888   2.239       .  S
N1885      N2186   1.314   1_554  A
N1886      N1887   1.312       .  A
N1887      C1889   1.347       .  A
C1889      C2089   1.463       .  S
N1891      N1892   1.304       .  A
N1891      N1897   1.316       .  A
N1891     Mn1899   2.128       .  S
N1892      C1902   1.328       .  A
N1893      N1894   1.296       .  A
N1893      N1895   1.307       .  A
N1893     Mn1900   2.067       .  S
N1894      C1903   1.329       .  A
N1895      N1896   1.333       .  A
N1895     Mn1899   2.388       .  S
N1896      C1903   1.364       .  A
N1897      N1898   1.342       .  A
N1897     Mn1900   2.384       .  S
N1898      C1902   1.371       .  A
C1902      C2099   1.510       .  S
C1903      C2039   1.481       .  S
N1904      N1905   1.309       .  A
N1904      N1910   1.310       .  A
N1904     Mn1933   2.281       .  S
N1905      C1912   1.345       .  A
N1906      N1908   1.305       .  A
N1906      N1907   1.308       .  A
N1906     Mn1922   2.280       .  S
N1907      C1913   1.345       .  A
N1908      N1909   1.308       .  A
N1908     Mn1933   2.291       .  S
N1909      C1913   1.346       .  A
N1910      N1911   1.311       .  A
N1910     Mn1922   2.308       .  S
N1911      C1912   1.344       .  A
C1912      C2079   1.428       .  S
C1913      C1999   1.443       .  S
N1914      N2217   1.321       .  A
N1914     Mn1944   2.297   1_545  S
N1915      N2216   1.320       .  A
N1916      N1917   1.329       .  A
N1916      N1918   1.320       .  A
N1917      C1924   1.358       .  A
N1918      N1919   1.322       .  A
N1919      C1924   1.350       .  A
N1920      N2223   1.318       .  A
N1920     Mn1922   2.320       .  S
N1921      N2222   1.320       .  A
C1924      C2016   1.484       .  S
N1925      N1926   1.325       .  A
N1925      N1931   1.322       .  A
N1926      C1934   1.354       .  A
N1927      N1928   1.322   1_655  A
N1927     Mn1945   2.319       .  S
N1928      C1935   1.355       .  A
N1929      N1930   1.317       .  A
N1929     Mn1933   2.303       .  S
N1931      N1932   1.329       .  A
N1932      C1934   1.358       .  A
C1934      C2059   1.494       .  S
N1936      N1937   1.310       .  A
N1936      N1942   1.306       .  A
N1936     Mn1944   2.307       .  S
N1937      C1947   1.349       .  A
N1938      N1939   1.309       .  A
N1938      N1940   1.306       .  A
N1938     Mn1945   2.314       .  S
N1939      C1948   1.343       .  A
N1940      N1941   1.307       .  A
N1940     Mn1944   2.270       .  S
N1941      C1948   1.342       .  A
N1942      N1943   1.309       .  A
N1942     Mn1945   2.286       .  S
N1943      C1947   1.344       .  A
C1947      C2069   1.438       .  S
C1948      C2009   1.435       .  S
C1949      C1951   1.571       .  S
C1949      C1953   1.601       .  S
C1949      C1952   1.595       .  S
C1949      C1973   1.864       .  S
C1950      C1954   1.570       .  S
C1950      C1956   1.592       .  S
C1950      C1955   1.576       .  S
C1950      C1972   1.865       .  S
C1951      C1959   1.378       .  A
C1951      C1954   1.467       .  A
C1952      C1963   1.381       .  A
C1952      C1955   1.453       .  A
C1953      C1967   1.391       .  A
C1953      C1956   1.478       .  A
C1954      C1957   1.369       .  A
C1955      C1961   1.390       .  A
C1956      C1964   1.389       .  A
C1957      N1958   1.346       .  A
C1957      H1970   1.078       .  S
N1958      C1959   1.349       .  A
N1958      C2046   1.423       .  S
C1959      H1960   1.076       .  S
C1961      N1962   1.352       .  A
C1961      H1971   1.073       .  S
N1962      C1963   1.348       .  A
N1962      C2026   1.450       .  S
C1963      H1969   1.070       .  S
C1964      N1965   1.345       .  A
C1964      H1966   1.044       .  S
N1965      C1967   1.342       .  A
N1965      C2036   1.438       .  S
C1967      H1968   1.077       .  S
C1972      C1974   1.593       .  S
C1972      C1976   1.575       .  S
C1972      C1975   1.580       .  S
C1973      C1977   1.587       .  S
C1973      C1979   1.562       .  S
C1973      C1978   1.571       .  S
C1974      C1982   1.392       .  A
C1974      C2279   1.476       .  A
C1975      C1986   1.366       .  A
C1975      C2280   1.465       .  A
C1976      C1990   1.381       .  A
C1976      C2281   1.468       .  A
C1977      C2276   1.474       .  A
C1977      C1980   1.388       .  A
C1978      C2277   1.464       .  A
C1978      C1984   1.362       .  A
C1979      C2278   1.469       .  A
C1979      C1987   1.371       .  A
C1980      N2283   1.350       .  A
C1980      H1993   1.079       .  S
N1981      C2282   1.348       .  A
N1981      C1982   1.352       .  A
N1981      C2321   1.440       .  S
C1982      H1983   1.079       .  S
C1984      N2287   1.339       .  A
C1984      H1994   1.072       .  S
N1985      C2286   1.338       .  A
N1985      C1986   1.344       .  A
N1985      C2298   1.415       .  S
C1986      H1992   1.069       .  S
C1987      N2290   1.338       .  A
C1987      H1989   1.076       .  S
N1988      C2289   1.339       .  A
N1988      C1990   1.347       .  A
N1988      C2308   1.441       .  S
C1990      H1991   1.078       .  S
C1995      C1996   1.402       .  A
C1995      C2000   1.387       .  A
C1995      H2002   1.081       .  S
C1996      C2299   1.394       .  A
C1996      N2287   1.416       .  S
C1997      C2298   1.395       .  A
C1997      C2300   1.379       .  A
C1997     Br2004   1.909       .  S
C1998      C2299   1.379       .  A
C1998      C1999   1.404       .  A
C1998      H2305   1.077   1_554  S
C1999      C2000   1.402       .  A
C2000     Br2001   1.922       .  S
H2003      C2300   1.078       .  S
C2005      C2006   1.412       .  A
C2005      C2010   1.382       .  A
C2005      H2012   1.086   1_554  S
C2006      C2007   1.408       .  A
C2006      N2290   1.441       .  S
C2007      C2008   1.396       .  A
C2007     Br2014   1.914       .  S
C2008      C2009   1.402       .  A
C2008      H2013   1.083       .  S
C2009      C2010   1.390       .  A
C2010     Br2011   1.926   1_554  S
C2015      C2016   1.403       .  A
C2015      C2322   1.399       .  A
C2015      H2324   1.084       .  S
C2016      C2017   1.416       .  A
C2017      C2018   1.403       .  A
C2017     Br2024   1.918       .  S
C2018      C2019   1.399       .  A
C2018      H2023   1.082       .  S
C2019      C2322   1.407       .  A
C2019      N2283   1.441       .  S
C2020      C2317   1.397       .  A
C2020      C2321   1.407       .  A
C2020     Br2021   1.913       .  S
H2022      C2317   1.084       .  S
C2025      C2026   1.411       .  A
C2025      C2030   1.407       .  A
C2025      H2032   1.080       .  S
C2026      C2027   1.406       .  A
C2027      C2028   1.396       .  A
C2027     Br2034   1.909       .  S
C2028      C2029   1.407       .  A
C2028      H2033   1.084       .  S
C2029      C2030   1.403       .  A
C2030     Br2031   1.912       .  S
C2035      C2036   1.412       .  A
C2035      C2040   1.409       .  A
C2035      H2042   1.082       .  S
C2036      C2037   1.394       .  A
C2037      C2038   1.386       .  A
C2037     Br2044   1.914       .  S
C2038      C2039   1.415       .  A
C2038      H2043   1.083       .  S
C2039      C2040   1.403       .  A
C2040     Br2041   1.912       .  S
C2045      C2046   1.407       .  A
C2045      C2050   1.386       .  A
C2045      H2052   1.083       .  S
C2046      C2047   1.392       .  A
C2047      C2048   1.386       .  A
C2047     Br2054   1.911       .  S
C2048      C2049   1.410       .  A
C2048      H2053   1.083       .  S
C2049      C2050   1.406       .  A
C2050     Br2051   1.926       .  S
C2055      C2056   1.407       .  A
C2055      C2060   1.408       .  A
C2055      H2062   1.082       .  S
C2056      C2057   1.407       .  A
C2057      C2058   1.404       .  A
C2057     Br2064   1.912       .  S
C2058      C2059   1.408       .  A
C2058      H2063   1.083       .  S
C2059      C2060   1.416       .  A
C2060     Br2061   1.922       .  S
C2065      C2066   1.404       .  A
C2065      C2070   1.393       .  A
C2065      H2072   1.076       .  S
C2066      C2067   1.404       .  A
C2067      C2068   1.384       .  A
C2067     Br2074   1.903       .  S
C2068      C2069   1.397       .  A
C2068      H2073   1.084       .  S
C2069      C2070   1.398       .  A
C2070     Br2071   1.919       .  S
C2075      C2076   1.401       .  A
C2075      C2080   1.393       .  A
C2075      H2082   1.082       .  S
C2076      C2077   1.405       .  A
C2077      C2078   1.379       .  A
C2077     Br2084   1.916       .  S
C2078      C2079   1.391       .  A
C2078      H2083   1.079       .  S
C2079      C2080   1.397       .  A
C2080     Br2081   1.917       .  S
C2085      C2086   1.399       .  A
C2085      C2090   1.392       .  A
C2085      H2394   1.083       .  S
C2086      C2087   1.396       .  A
C2087      C2088   1.384       .  A
C2087     Br2094   1.913       .  S
C2088      C2089   1.404       .  A
C2088      H2093   1.084       .  S
C2089      C2090   1.417       .  A
C2090     Br2393   1.926       .  S
Br2091     C2392   1.928       .  S
H2092      C2387   1.084       .  S
C2095      C2398   1.388       .  A
C2095      C2402   1.396       .  A
C2095      H2102   1.083       .  S
C2096      C2397   1.389       .  A
C2096      C2097   1.415       .  A
C2096      N2131   1.450       .  S
C2097      C2098   1.420       .  A
C2097     Br2104   1.916       .  S
C2098      C2099   1.409       .  A
C2098      H2103   1.083       .  S
C2099      C2100   1.433       .  A
C2100      C2397   1.397       .  A
C2100     Br2403   1.926       .  S
Br2101     C2402   1.929       .  S
C2105      C2106   1.401       .  A
C2105      C2110   1.392       .  A
C2105      H2112   1.082       .  S
C2106      C2409   1.417       .  A
C2106      N2128   1.450       .  S
C2107      C2408   1.418       .  A
C2107      C2410   1.407       .  A
C2107     Br2114   1.914   1_556  S
C2108      C2409   1.407       .  A
C2108      C2109   1.398       .  A
C2108      H2415   1.082       .  S
C2109      C2110   1.414       .  A
C2110     Br2111   1.923       .  S
H2113      C2410   1.082   1_554  S
C2115      C2117   1.562       .  S
C2115      C2119   1.590       .  S
C2115      C2118   1.579       .  S
C2115      C2139   1.857       .  S
C2116      C2120   1.561       .  S
C2116      C2122   1.593       .  S
C2116      C2121   1.608       .  S
C2116      C2138   1.875       .  S
C2117      C2125   1.374       .  A
C2118      C2129   1.379       .  A
C2119      C2133   1.393       .  A
C2120      C2123   1.356       .  A
C2121      C2127   1.384       .  A
C2122      C2130   1.383       .  A
C2123      N2124   1.340       .  A
C2123      H2136   1.068       .  S
N2124      C2388   1.413       .  S
C2125      H2126   1.079       .  S
C2127      H2137   1.080       .  S
N2128      C2129   1.361       .  A
C2129      H2135   1.081       .  S
C2130      H2132   1.070       .  S
N2131      C2133   1.344       .  A
C2133      H2134   1.068       .  S
C2138      C2140   1.622       .  S
C2138      C2142   1.591       .  S
C2138      C2141   1.567       .  S
C2139      C2143   1.592       .  S
C2139      C2145   1.554       .  S
C2139      C2144   1.570       .  S
C2140      C2148   1.402       .  A
C2140      C2143   1.481       .  A
C2141      C2152   1.371       .  A
C2141      C2144   1.464       .  A
C2142      C2156   1.384       .  A
C2142      C2145   1.469       .  A
C2143      C2146   1.389       .  A
C2144      C2150   1.364       .  A
C2145      C2153   1.367       .  A
C2146      N2147   1.350       .  A
C2146      H2159   1.080       .  S
N2147      C2148   1.352       .  A
N2147      C2358   1.451       .  S
C2148      H2149   1.070       .  S
C2150      N2151   1.353       .  A
C2150      H2160   1.081       .  S
N2151      C2152   1.357       .  A
N2151      C2378   1.417       .  S
C2152      H2158   1.082       .  S
C2153      N2154   1.334       .  A
C2153      H2155   1.076       .  S
N2154      C2156   1.345       .  A
N2154      C2368   1.425       .  S
C2156      H2157   1.075       .  S
N2161      N2162   1.325       .  A
N2161      N2167   1.311       .  A
N2161     Mn2190   2.375       .  S
N2162      C2169   1.355       .  A
N2163      N2165   1.313       .  A
N2163      N2164   1.327       .  A
N2163     Mn2179   2.382       .  S
N2164      C2170   1.361       .  A
N2165      N2166   1.301       .  A
N2165     Mn2190   2.196       .  S
N2166      C2170   1.338       .  A
N2167      N2168   1.304       .  A
N2167     Mn2179   2.203       .  S
N2168      C2169   1.336       .  A
C2169      C2411   1.468       .  S
C2170      C2331   1.472       .  S
N2171      N2172   1.312       .  A
N2171     Mn2201   2.197   1_455  S
N2173      N2174   1.306       .  A
N2173      N2175   1.323       .  A
N2174      C2181   1.342       .  A
N2175      N2176   1.317       .  A
N2176      C2181   1.352       .  A
N2177      N2178   1.315       .  A
N2177     Mn2179   2.268       .  S
C2181      C2351   1.452       .  S
N2182      N2183   1.315       .  A
N2182      N2188   1.325       .  A
N2183      C2191   1.345       .  A
N2184     Mn2202   2.118   1_545  S
N2185      C2192   1.346       .  A
N2186     Mn2190   2.253       .  S
N2188      N2189   1.313       .  A
N2189      C2191   1.348       .  A
C2191      C2391   1.460       .  S
N2193      N2194   1.303       .  A
N2193      N2199   1.315       .  A
N2193     Mn2201   2.126       .  S
N2194      C2204   1.328       .  A
N2195      N2196   1.295       .  A
N2195      N2197   1.306       .  A
N2195     Mn2202   2.067       .  S
N2196      C2205   1.329       .  A
N2197      N2198   1.333       .  A
N2197     Mn2201   2.382       .  S
N2198      C2205   1.364       .  A
N2199      N2200   1.342       .  A
N2199     Mn2202   2.381       .  S
N2200      C2204   1.371       .  A
C2204      C2401   1.507       .  S
C2205      C2341   1.482       .  S
N2206      N2207   1.309       .  A
N2206      N2212   1.311       .  A
N2206     Mn2235   2.276       .  S
N2207      C2214   1.346       .  A
N2208      N2210   1.305       .  A
N2208      N2209   1.307       .  A
N2208     Mn2224   2.268       .  S
N2209      C2215   1.344       .  A
N2210      N2211   1.308       .  A
N2210     Mn2235   2.292       .  S
N2211      C2215   1.345       .  A
N2212      N2213   1.311       .  A
N2212     Mn2224   2.313       .  S
N2213      C2214   1.345       .  A
C2214      C2381   1.427       .  S
C2215      C2301   1.439       .  S
N2216     Mn2246   2.292   1_545  S
N2218      N2219   1.327       .  A
N2218      N2220   1.320       .  A
N2219      C2226   1.356       .  A
N2220      N2221   1.322       .  A
N2221      C2226   1.350       .  A
N2222     Mn2224   2.326       .  S
C2226      C2318   1.481       .  S
N2227      N2228   1.324       .  A
N2227      N2233   1.322       .  A
N2228      C2236   1.353       .  A
N2229      N2230   1.321   1_655  A
N2229     Mn2247   2.313       .  S
N2230      C2237   1.354       .  A
N2231      N2232   1.317       .  A
N2231     Mn2235   2.305       .  S
N2233      N2234   1.330       .  A
N2234      C2236   1.358       .  A
C2236      C2361   1.494       .  S
N2238      N2239   1.309       .  A
N2238      N2244   1.306       .  A
N2238     Mn2246   2.306       .  S
N2239      C2249   1.349       .  A
N2240      N2241   1.310       .  A
N2240      N2242   1.307       .  A
N2240     Mn2247   2.311       .  S
N2241      C2250   1.343       .  A
N2242      N2243   1.307       .  A
N2242     Mn2246   2.272       .  S
N2243      C2250   1.341       .  A
N2244      N2245   1.308       .  A
N2244     Mn2247   2.280       .  S
N2245      C2249   1.344       .  A
C2249      C2371   1.435       .  S
C2250      C2311   1.435       .  S
C2251      C2253   1.574       .  S
C2251      C2255   1.599       .  S
C2251      C2254   1.594       .  S
C2251      C2275   1.862       .  S
C2252      C2256   1.570       .  S
C2252      C2258   1.587       .  S
C2252      C2257   1.574       .  S
C2252      C2274   1.863       .  S
C2253      C2261   1.379       .  A
C2253      C2256   1.469       .  A
C2254      C2265   1.381       .  A
C2254      C2257   1.452       .  A
C2255      C2269   1.393       .  A
C2255      C2258   1.482       .  A
C2256      C2259   1.369       .  A
C2257      C2263   1.388       .  A
C2258      C2266   1.382       .  A
C2259      N2260   1.347       .  A
C2259      H2272   1.079       .  S
N2260      C2261   1.350       .  A
N2260      C2348   1.423       .  S
C2261      H2262   1.077       .  S
C2263      N2264   1.352       .  A
C2263      H2273   1.073       .  S
N2264      C2265   1.348       .  A
N2264      C2328   1.448       .  S
C2265      H2271   1.072       .  S
C2266      N2267   1.336       .  A
C2266      H2268   1.086       .  S
N2267      C2269   1.345       .  A
N2267      C2338   1.435       .  S
C2269      H2270   1.076       .  S
C2274      C2276   1.591   1_556  S
C2274      C2278   1.576   1_556  S
C2274      C2277   1.580   1_556  S
C2275      C2279   1.585       .  S
C2275      C2281   1.560       .  S
C2275      C2280   1.571       .  S
C2276      C2284   1.392   1_554  A
C2277      C2288   1.366   1_554  A
C2278      C2292   1.382   1_554  A
C2279      C2282   1.387       .  A
C2280      C2286   1.364       .  A
C2281      C2289   1.369       .  A
C2282      H2295   1.079       .  S
N2283      C2284   1.353   1_554  A
C2284      H2285   1.079       .  S
C2286      H2296   1.073       .  S
N2287      C2288   1.345   1_554  A
C2288      H2294   1.069       .  S
C2289      H2291   1.075       .  S
N2290      C2292   1.346   1_554  A
C2292      H2293   1.075       .  S
C2297      C2298   1.402       .  A
C2297      C2302   1.388       .  A
C2297      H2304   1.081       .  S
C2299     Br2306   1.910   1_554  S
C2300      C2301   1.403       .  A
C2301      C2302   1.400       .  A
C2302     Br2303   1.922       .  S
C2307      C2308   1.413       .  A
C2307      C2312   1.383       .  A
C2307      H2314   1.065       .  S
C2308      C2309   1.407       .  A
C2309      C2310   1.398       .  A
C2309     Br2316   1.915       .  S
C2310      C2311   1.403       .  A
C2310      H2315   1.081       .  S
C2311      C2312   1.389       .  A
C2312     Br2313   1.926       .  S
C2317      C2318   1.402       .  A
C2318      C2319   1.415       .  A
C2319      C2320   1.401       .  A
C2319     Br2326   1.917       .  S
C2320      C2321   1.399       .  A
C2320      H2325   1.082       .  S
C2322     Br2323   1.913       .  S
C2327      C2328   1.411       .  A
C2327      C2332   1.407       .  A
C2327      H2334   1.080       .  S
C2328      C2329   1.405       .  A
C2329      C2330   1.395       .  A
C2329     Br2336   1.910       .  S
C2330      C2331   1.408       .  A
C2330      H2335   1.084       .  S
C2331      C2332   1.402       .  A
C2332     Br2333   1.911       .  S
C2337      C2338   1.410       .  A
C2337      C2342   1.408       .  A
C2337      H2344   1.082       .  S
C2338      C2339   1.392       .  A
C2339      C2340   1.386       .  A
C2339     Br2346   1.913       .  S
C2340      C2341   1.417       .  A
C2340      H2345   1.082       .  S
C2341      C2342   1.403       .  A
C2342     Br2343   1.913       .  S
C2347      C2348   1.407       .  A
C2347      C2352   1.386       .  A
C2347      H2354   1.083       .  S
C2348      C2349   1.394       .  A
C2349      C2350   1.385       .  A
C2349     Br2356   1.911       .  S
C2350      C2351   1.409       .  A
C2350      H2355   1.084       .  S
C2351      C2352   1.407       .  A
C2352     Br2353   1.925       .  S
C2357      C2358   1.407       .  A
C2357      C2362   1.410       .  A
C2357      H2364   1.082       .  S
C2358      C2359   1.405       .  A
C2359      C2360   1.402       .  A
C2359     Br2366   1.912       .  S
C2360      C2361   1.408       .  A
C2360      H2365   1.083       .  S
C2361      C2362   1.417       .  A
C2362     Br2363   1.922       .  S
C2367      C2368   1.403       .  A
C2367      C2372   1.392       .  A
C2367      H2374   1.075       .  S
C2368      C2369   1.403       .  A
C2369      C2370   1.384       .  A
C2369     Br2376   1.901       .  S
C2370      C2371   1.397       .  A
C2370      H2375   1.084       .  S
C2371      C2372   1.397       .  A
C2372     Br2373   1.919       .  S
C2377      C2378   1.402       .  A
C2377      C2382   1.395       .  A
C2377      H2384   1.082       .  S
C2378      C2379   1.404       .  A
C2379      C2380   1.378       .  A
C2379     Br2386   1.917       .  S
C2380      C2381   1.391       .  A
C2380      H2385   1.078       .  S
C2381      C2382   1.398       .  A
C2382     Br2383   1.920       .  S
C2387      C2388   1.399       .  A
C2387      C2392   1.391       .  A
C2388      C2389   1.397       .  A
C2389      C2390   1.383       .  A
C2389     Br2396   1.914       .  S
C2390      C2391   1.403       .  A
C2390      H2395   1.084       .  S
C2391      C2392   1.417       .  A
C2397      H2404   1.083       .  S
C2398      C2399   1.414       .  A
C2399      C2400   1.418       .  A
C2399     Br2406   1.916       .  S
C2400      C2401   1.408       .  A
C2400      H2405   1.083       .  S
C2401      C2402   1.434       .  A
C2407      C2408   1.401       .  A
C2407      C2412   1.392       .  A
C2407      H2414   1.082       .  S
C2409     Br2416   1.913       .  S
C2410      C2411   1.398       .  A
C2411      C2412   1.414       .  A
C2412     Br2413   1.923       .  S
