geometry optimzed in LAMMPS
_audit_creation_date              2020-11-30 
_audit_creation_method            'lammps2cif' 
_symmetry_space_group_name_H-M    'P1' 
_symmetry_Int_Tables_number       1 
_symmetry_cell_setting            triclinic 
loop_ 
_symmetry_equiv_pos_as_xyz 
  x,y,z 
_cell_length_a                    106.04205270512664 
_cell_length_b                    106.15633042229807 
_cell_length_c                    106.05150834506098 
_cell_angle_alpha                 90.02446443584485 
_cell_angle_beta                  90.20932029066583 
_cell_angle_gamma                 90.055861678491 
loop_ 
_atom_site_label 
_atom_site_type_symbol 
_atom_site_fract_x 
_atom_site_fract_y 
_atom_site_fract_z 
_atom_site_charge 
N1          N  0.94508534  0.95732211  0.98333736    -0.27430
N2          N  0.95209954  0.94705469  0.98338266    -0.35290
C3          C  0.94890839  0.93986671  0.99329230     0.00910
C4          C  0.93952425  0.94600010  0.99992556     0.06930
C5          C  0.93724375  0.95697605  0.99324676    -0.06170
H6          H  0.95304105  0.93079391  0.99537036     0.07600
H7          H  0.93047404  0.96424834  0.99549685     0.08800
Cu8        Cu  0.96605926  0.94364414  0.97034607     0.44170
Cu9        Cu  0.94664283  0.97126639  0.96984106     0.41990
Cu10       Cu  0.97261067  0.96828132  0.94769500     0.43880
N11         N  0.98087208  0.94314226  0.95781862    -0.34820
N12         N  0.98361071  0.95228202  0.94981587    -0.29070
C13         C  0.99416548  0.94919135  0.94352485    -0.05180
C14         C  0.99816332  0.93754593  0.94780254     0.07040
C15         C  0.98948969  0.93395862  0.95677324     0.00840
H16         H  0.99849841  0.95491220  0.93629509     0.08490
H17         H  0.98955197  0.92539187  0.96229455     0.07570
N18         N  0.95941430  0.98267669  0.94720151    -0.36270
N19         N  0.94999856  0.98373433  0.95526949    -0.28450
C20         C  0.94310198  0.99392214  0.95228192    -0.03690
C21         C  0.94848803  0.99962554  0.94189070     0.04920
C22         C  0.95873134  0.99216728  0.93884028     0.03010
H23         H  0.93464741  0.99678295  0.95717815     0.08120
H24         H  0.96523683  0.99355855  0.93112970     0.06950
N25         N  0.27968506  0.29170497  0.25606639    -0.27430
N26         N  0.28760256  0.28248842  0.25327968    -0.35290
C27         C  0.29409143  0.28565973  0.24286774     0.00910
C28         C  0.29019187  0.29748752  0.23910400     0.06930
C29         C  0.28104346  0.30102946  0.24761356    -0.06170
H30         H  0.30118445  0.27984206  0.23844539     0.07600
H31         H  0.27561095  0.30964892  0.24753809     0.08800
Cu32       Cu  0.28973634  0.26625783  0.26398713     0.44170
Cu33       Cu  0.26691677  0.29126581  0.27081167     0.41990
Cu34       Cu  0.26981156  0.26462713  0.29133315     0.43880
N35         N  0.29101979  0.25212116  0.27744347    -0.34820
N36         N  0.28389446  0.25180113  0.28762285    -0.29070
C37         C  0.28724718  0.24191469  0.29477135    -0.05180
C38         C  0.29682067  0.23549078  0.28870701     0.07040
C39         C  0.29906727  0.24234381  0.27780411     0.00840
H40         H  0.28317115  0.23980774  0.30385459     0.08490
H41         H  0.30605213  0.24038100  0.27066081     0.07570
N42         N  0.25580698  0.27795695  0.29306099    -0.36270
N43         N  0.25469426  0.28786988  0.28562874    -0.28450
C44         C  0.24473800  0.29474973  0.28939877    -0.03690
C45         C  0.23926923  0.28876227  0.29963918     0.04920
C46         C  0.24661778  0.27820013  0.30171045     0.03010
H47         H  0.24194670  0.30359884  0.28519411     0.08120
H48         H  0.24540737  0.27119741  0.30901524     0.06950
N49         N  0.77897695  0.79296407  0.75634504    -0.27430
N50         N  0.78840963  0.78500657  0.75485898    -0.35290
C51         C  0.79521085  0.78840633  0.74479323     0.00910
C52         C  0.79009281  0.79931094  0.73982168     0.06930
C53         C  0.77969616  0.80184516  0.74734365    -0.06170
H54         H  0.80300227  0.78296933  0.74117144     0.07600
H55         H  0.77304464  0.80949124  0.74628849     0.08800
Cu56       Cu  0.79194146  0.76991852  0.76641563     0.44170
Cu57       Cu  0.76535835  0.79084040  0.77018921     0.41990
Cu58       Cu  0.77049486  0.76374632  0.79116631     0.43880
N59         N  0.79387610  0.75493672  0.77846618    -0.34820
N60         N  0.78565486  0.75219148  0.78734203    -0.29070
C61         C  0.78929378  0.74153618  0.79315063    -0.05180
C62         C  0.80037883  0.73739171  0.78760012     0.07040
C63         C  0.80309222  0.74632264  0.77849889     0.00840
H64         H  0.78425794  0.73717695  0.80085501     0.08490
H65         H  0.81129125  0.74682370  0.77251191     0.07570
N66         N  0.75648866  0.77706748  0.79339173    -0.36270
N67         N  0.75417458  0.78651440  0.78561855    -0.28450
C68         C  0.74401852  0.79285561  0.78977293    -0.03690
C69         C  0.73993682  0.78734287  0.80092022     0.04920
C70         C  0.74810003  0.77732012  0.80279935     0.03010
H71         H  0.73984523  0.80068389  0.78478985     0.08120
H72         H  0.74802906  0.77063403  0.81048584     0.06950
N73         N  0.45219581  0.44687023  0.48274423    -0.27430
N74         N  0.44532532  0.45722924  0.48212084    -0.35290
C75         C  0.43709595  0.45732578  0.49171195     0.00910
C76         C  0.43886648  0.44648800  0.49869336     0.06930
C77         C  0.44841693  0.43998968  0.49269622    -0.06170
H78         H  0.43022650  0.46466189  0.49337826     0.07600
H79         H  0.45242476  0.43103168  0.49544906     0.08800
Cu80       Cu  0.44731981  0.47064746  0.46818671     0.44170
Cu81       Cu  0.46668952  0.44310875  0.47027510     0.41990
Cu82       Cu  0.47443258  0.46807196  0.44782038     0.43880
N83         N  0.45115512  0.48313976  0.45378517    -0.34820
N84         N  0.46122165  0.48247455  0.44651768    -0.29070
C85         C  0.46090560  0.49207114  0.43824032    -0.05180
C86         C  0.45015348  0.49916895  0.44046397     0.07040
C87         C  0.44412856  0.49306713  0.45028413     0.00840
H88         H  0.46796893  0.49373378  0.43109691     0.08490
H89         H  0.43513011  0.49540242  0.45441816     0.07570
N90         N  0.48472275  0.45153683  0.44990164    -0.36270
N91         N  0.48156946  0.44234291  0.45770607    -0.28450
C92         C  0.48973512  0.43277264  0.45636334    -0.03690
C93         C  0.49843862  0.43608164  0.44729481     0.04920
C94         C  0.49509482  0.44808363  0.44348655     0.03010
H95         H  0.48947798  0.42412763  0.46175406     0.08120
H96         H  0.49975229  0.45380998  0.43646601     0.06950
N97         N  0.28150233  0.68970008  0.23033715    -0.27430
N98         N  0.29070971  0.69793317  0.23203937    -0.35290
C99         C  0.29711265  0.69500501  0.24257689     0.00910
C100        C  0.29177808  0.68432248  0.24765571     0.06930
C101        C  0.28186819  0.68119460  0.23974110    -0.06170
H102        H  0.30484652  0.70045062  0.24643066     0.07600
H103        H  0.27513758  0.67363973  0.24100032     0.08800
Cu104      Cu  0.29363804  0.71329445  0.22059174     0.44170
Cu105      Cu  0.26827333  0.69141973  0.21597606     0.41990
Cu106      Cu  0.26907845  0.72148163  0.19882819     0.43880
N107        N  0.29421888  0.72904450  0.20931318    -0.34820
N108        N  0.28502211  0.73242962  0.20161719    -0.29070
C109        C  0.28824578  0.74328658  0.19593423    -0.05180
C110        C  0.30002365  0.74692909  0.20037000     0.07040
C111        C  0.30357111  0.73752315  0.20867871     0.00840
H112        H  0.28246586  0.74813076  0.18905398     0.08490
H113        H  0.31240909  0.73665771  0.21370391     0.07570
N114        N  0.25565124  0.70754577  0.19609509    -0.36270
N115        N  0.25563230  0.69649950  0.20188378    -0.28450
C116        C  0.24603845  0.68951321  0.19735895    -0.03690
C117        C  0.23975560  0.69652363  0.18834115     0.04920
C118        C  0.24600164  0.70792324  0.18785743     0.03010
H119        H  0.24369709  0.68012082  0.20054257     0.08120
H120        H  0.24380190  0.71585135  0.18183477     0.06950
N121        N  0.70052340  0.78481235  0.23341783    -0.27430
N122        N  0.70830531  0.79390236  0.23002067    -0.35290
C123        C  0.70727253  0.80349682  0.23819678     0.00910
C124        C  0.69839139  0.80034589  0.24723312     0.06930
C125        C  0.69443852  0.78831781  0.24395117    -0.06170
H126        H  0.71274053  0.81208320  0.23767101     0.07600
H127        H  0.68796839  0.78231356  0.24901310     0.08800
Cu128      Cu  0.72071666  0.79251515  0.21506886     0.44170
Cu129      Cu  0.69847788  0.76820518  0.22341585     0.41990
Cu130      Cu  0.72094872  0.76277792  0.19837256     0.43880
N131        N  0.73345881  0.78814707  0.20099268    -0.34820
N132        N  0.73377577  0.77712656  0.19519229    -0.29070
C133        C  0.74335924  0.77709706  0.18694235    -0.05180
C134        C  0.74924202  0.78871054  0.18745492     0.07040
C135        C  0.74279256  0.79546195  0.19652790     0.00840
H136        H  0.74580462  0.76923552  0.18093763     0.08490
H137        H  0.74487883  0.80487840  0.19983858     0.07570
N138        N  0.70578811  0.75105202  0.20199622    -0.36270
N139        N  0.69743979  0.75323492  0.21096937    -0.28450
C140        C  0.68823881  0.74455514  0.21025407    -0.03690
C141        C  0.69102428  0.73648400  0.20046117     0.04920
C142        C  0.70219163  0.74082304  0.19540443     0.03010
H143        H  0.68007509  0.74422280  0.21633075     0.08120
H144        H  0.70713626  0.73705859  0.18733460     0.06950
N145        N  0.78005547  0.19218397  0.73145758    -0.27430
N146        N  0.78716360  0.20178281  0.73503841    -0.35290
C147        C  0.79290053  0.19888618  0.74596927     0.00910
C148        C  0.78914382  0.18692863  0.74955267     0.06930
C149        C  0.78113150  0.18289883  0.74001044    -0.06170
H150        H  0.79914761  0.20515221  0.75107234     0.07600
H151        H  0.77639246  0.17390868  0.73928090     0.08800
Cu152      Cu  0.78884265  0.21842165  0.72506129     0.44170
Cu153      Cu  0.76835879  0.19249800  0.71573453     0.41990
Cu154      Cu  0.76893897  0.22157765  0.69789818     0.43880
N155        N  0.79040554  0.23305886  0.71232037    -0.34820
N156        N  0.78334023  0.23401634  0.70209719    -0.29070
C157        C  0.78756002  0.24364266  0.69504303    -0.05180
C158        C  0.79768456  0.24917833  0.70123328     0.07040
C159        C  0.79922545  0.24213447  0.71213648     0.00840
H160        H  0.78392943  0.24591989  0.68578811     0.08490
H161        H  0.80650446  0.24323262  0.71922409     0.07570
N162        N  0.75567194  0.20754819  0.69529692    -0.36270
N163        N  0.75567305  0.19671233  0.70140998    -0.28450
C164        C  0.74603947  0.18960728  0.69715424    -0.03690
C165        C  0.73950424  0.19640931  0.68806562     0.04920
C166        C  0.74599480  0.20769934  0.68711743     0.03010
H167        H  0.74418518  0.18010711  0.70029441     0.08120
H168        H  0.74386115  0.21550037  0.68091090     0.06950
N169        N  0.20812065  0.69297631  0.75687837    -0.27430
N170        N  0.19952001  0.70161475  0.75444918    -0.35290
C171        C  0.19295602  0.69822690  0.74413201     0.00910
C172        C  0.19739120  0.68665388  0.73999797     0.06930
C173        C  0.20710309  0.68370992  0.74831533    -0.06170
H174        H  0.18580170  0.70405045  0.73981976     0.07600
H175        H  0.21310838  0.67548666  0.74812396     0.08800
Cu176      Cu  0.19686362  0.71727227  0.76563235     0.44170
Cu177      Cu  0.22125476  0.69469353  0.77126684     0.41990
Cu178      Cu  0.21868399  0.72252048  0.79138587     0.43880
N179        N  0.19497154  0.73147690  0.77875846    -0.34820
N180        N  0.20312436  0.73380891  0.78789874    -0.29070
C181        C  0.19915920  0.74389235  0.79447381    -0.05180
C182        C  0.18774332  0.74790957  0.78941659     0.07040
C183        C  0.18550191  0.73979527  0.77940919     0.00840
H184        H  0.20441364  0.74805228  0.80215976     0.08490
H185        H  0.17751800  0.73984117  0.77303925     0.07570
N186        N  0.23228910  0.70866507  0.79353087    -0.36270
N187        N  0.23338230  0.69873076  0.78607404    -0.28450
C188        C  0.24322474  0.69174268  0.78995927    -0.03690
C189        C  0.24837822  0.69742873  0.80049115     0.04920
C190        C  0.24128344  0.70814741  0.80247951     0.03010
H191        H  0.24627392  0.68307435  0.78555916     0.08120
H192        H  0.24262023  0.71510846  0.80981792     0.06950
N193        N  0.95855369  0.00476106  0.54512122    -0.27430
N194        N  0.94825278  0.00389280  0.53811510    -0.34730
C195        C  0.94149152  0.99387808  0.54191924     0.00910
C196        C  0.94799419  0.98810640  0.55162923     0.06930
C197        C  0.95871967  0.99526033  0.55347242    -0.06170
H198        H  0.93264229  0.99089451  0.53777569     0.07600
H199        H  0.96604963  0.99374036  0.56042571     0.08800
Cu200      Cu  0.94436999  0.01585443  0.52321673     0.44170
Cu201      Cu  0.97190202  0.01876792  0.54310401     0.41990
Cu202      Cu  0.97042743  0.03574984  0.51373940     0.43880
N203        N  0.94397383  0.02754061  0.50762433    -0.34820
N204        N  0.95372783  0.03427699  0.50378778    -0.29070
C205        C  0.95054827  0.04047773  0.49319959    -0.05180
C206        C  0.93815229  0.03763518  0.49040204     0.07040
C207        C  0.93427296  0.02936701  0.49965528     0.00840
H208        H  0.95672142  0.04675078  0.48806608     0.08490
H209        H  0.92515274  0.02486689  0.50043280     0.07570
N210        N  0.98368461  0.03921351  0.52760864    -0.36270
N211        N  0.98386839  0.03342407  0.53862036    -0.28450
C212        C  0.99268494  0.03879498  0.54599895    -0.03690
C213        C  0.99826552  0.04852902  0.53933494     0.04920
C214        C  0.99246097  0.04832594  0.52761379     0.03010
H215        H  0.99472022  0.03594635  0.55558399     0.08120
H216        H  0.99442374  0.05428372  0.51960174     0.06950
N217        N  0.70935410  0.19352108  0.25494524    -0.27430
N218        N  0.70129785  0.20271317  0.25248391    -0.35290
C219        C  0.69485193  0.19993400  0.24191917     0.00910
C220        C  0.69891716  0.18837820  0.23763540     0.06930
C221        C  0.70814047  0.18455880  0.24604082    -0.06170
H222        H  0.68775335  0.20590136  0.23766580     0.07600
H223        H  0.71375440  0.17607020  0.24555133     0.08800
Cu224      Cu  0.69893167  0.21849029  0.26361346     0.44170
Cu225      Cu  0.72192845  0.19388681  0.26999925     0.41990
Cu226      Cu  0.71537887  0.21855622  0.29295388     0.43880
N227        N  0.69632825  0.23216057  0.27720228    -0.34820
N228        N  0.70199368  0.23190128  0.28830971    -0.29070
C229        C  0.69773295  0.24151576  0.29536770    -0.05180
C230        C  0.68911936  0.24822308  0.28823512     0.07040
C231        C  0.68839084  0.24200164  0.27680914     0.00840
H232        H  0.70065673  0.24345236  0.30495829     0.08490
H233        H  0.68224101  0.24420846  0.26895670     0.07570
N234        N  0.73020922  0.20603175  0.29431202    -0.36270
N235        N  0.73293021  0.19728401  0.28588051    -0.28450
C236        C  0.74370448  0.19152019  0.28935048    -0.03690
C237        C  0.74800330  0.19702026  0.30042604     0.04920
C238        C  0.73905937  0.20601220  0.30337101     0.03010
H239        H  0.74817711  0.18402909  0.28409202     0.08120
H240        H  0.73889228  0.21210716  0.31153365     0.06950
N241        N  0.20385030  0.25252853  0.70000770    -0.27430
N242        N  0.19450588  0.25605903  0.70744578    -0.35290
C243        C  0.18485227  0.24796938  0.70609236     0.00910
C244        C  0.18829199  0.23892186  0.69741964     0.06930
C245        C  0.20042491  0.24198364  0.69382926    -0.06170
H246        H  0.17609622  0.24846573  0.71127005     0.07600
H247        H  0.20628906  0.23698017  0.68717470     0.08800
Cu248      Cu  0.19533598  0.27112808  0.71979489     0.44170
Cu249      Cu  0.22060538  0.26244945  0.69821445     0.41990
Cu250      Cu  0.22395039  0.28911338  0.71906629     0.43880
N251        N  0.19946398  0.28523310  0.73262262    -0.34820
N252        N  0.21021460  0.29150269  0.73255073    -0.29070
C253        C  0.21031054  0.29974242  0.74213872    -0.05180
C254        C  0.19905092  0.29865419  0.74862773     0.07040
C255        C  0.19233897  0.28942248  0.74220923     0.00840
H256        H  0.21799370  0.30615526  0.74414161     0.08490
H257        H  0.18284771  0.28622045  0.74404603     0.07570
N258        N  0.23618049  0.28534573  0.70448808    -0.36270
N259        N  0.23523342  0.27537382  0.69707133    -0.28450
C260        C  0.24473688  0.27558646  0.68871468    -0.03690
C261        C  0.25190523  0.28623679  0.69099947     0.04920
C262        C  0.24619065  0.29225690  0.70098019     0.03010
H263        H  0.24620699  0.26862469  0.68141510     0.08120
H264        H  0.24914986  0.30093835  0.70544775     0.06950
N265        N  0.53691373  0.03833465  0.48261012    -0.27430
N266        N  0.54561470  0.02977354  0.48020877    -0.35290
C267        C  0.55453264  0.03030963  0.48925467     0.00910
C268        C  0.55118551  0.03963719  0.49772414     0.06930
C269        C  0.53992725  0.04444278  0.49329322    -0.06170
H270        H  0.56256025  0.02405980  0.48989258     0.07600
H271        H  0.53425437  0.05172250  0.49760193     0.08800
Cu272      Cu  0.54401732  0.01708758  0.46541132     0.44170
Cu273      Cu  0.52114304  0.04101148  0.47154785     0.41990
Cu274      Cu  0.51364268  0.01734340  0.44852370     0.43880
N275        N  0.53900432  0.00447289  0.45130704    -0.34820
N276        N  0.52787421  0.00424800  0.44561145    -0.29070
C277        C  0.52760138  0.99458035  0.43742022    -0.05180
C278        C  0.53914929  0.98858963  0.43784684     0.07040
C279        C  0.54613699  0.99503994  0.44677536     0.00840
H280        H  0.51963602  0.99218097  0.43148403     0.08490
H281        H  0.55561314  0.99290349  0.44991582     0.07570
N282        N  0.50239637  0.03299479  0.45178596    -0.36270
N283        N  0.50554931  0.04185075  0.45995078    -0.28450
C284        C  0.49703538  0.05116579  0.45945912    -0.03690
C285        C  0.48780283  0.04794756  0.45077666     0.04920
C286        C  0.49162488  0.03640057  0.44596374     0.03010
H287        H  0.49780701  0.05979614  0.46480809     0.08120
H288        H  0.48698007  0.03091832  0.43870515     0.06950
N289        N  0.48509991  0.53391232  0.03767830    -0.27430
N290        N  0.48381979  0.54088998  0.02746193    -0.35290
C291        C  0.49250459  0.55007392  0.02759018     0.00910
C292        C  0.49943277  0.54912083  0.03863255     0.06930
C293        C  0.49457385  0.53861559  0.04471769    -0.06170
H294        H  0.49372801  0.55677941  0.02003521     0.07600
H295        H  0.49762972  0.53472084  0.05364164     0.08800
Cu296      Cu  0.46976568  0.53836622  0.01429025     0.44170
Cu297      Cu  0.47383643  0.51835444  0.04119131     0.41990
Cu298      Cu  0.44757617  0.51320262  0.01924237     0.43880
N299        N  0.45400294  0.53563424  0.00326287    -0.34820
N300        N  0.44591560  0.52631615  0.00486405    -0.29070
C301        C  0.43687542  0.52712367  0.99597918    -0.05180
C302        C  0.43926878  0.53763994  0.98859436     0.07040
C303        C  0.45028025  0.54270957  0.99346243     0.00840
H304        H  0.42936724  0.52032724  0.99482344     0.08490
H305        H  0.45527614  0.55093745  0.99011614     0.07570
N306        N  0.45144804  0.50184737  0.03467348    -0.36270
N307        N  0.46114562  0.50354383  0.04238470    -0.28450
C308        C  0.46106972  0.49444978  0.05119210    -0.03690
C309        C  0.45081015  0.48674588  0.04895428     0.04920
C310        C  0.44484071  0.49172824  0.03849919     0.03010
H311        H  0.46783323  0.49365854  0.05881035     0.08120
H312        H  0.43636248  0.48824703  0.03398420     0.06950
N313        N  0.04316370  0.45670919  0.50757693    -0.27430
N314        N  0.03469984  0.44774176  0.50573603    -0.35290
C315        C  0.03796115  0.44094777  0.49555474     0.00910
C316        C  0.04898244  0.44594358  0.49080205     0.06930
C317        C  0.05197556  0.45597603  0.49853732    -0.06170
H318        H  0.03253472  0.43320466  0.49170877     0.07600
H319        H  0.05987175  0.46235845  0.49757950     0.08800
Cu320      Cu  0.01886487  0.44566135  0.51681103     0.44170
Cu321      Cu  0.04218994  0.46961211  0.52214759     0.41990
Cu322      Cu  0.01537065  0.46712178  0.54322379     0.43880
N323        N  0.00412828  0.44496260  0.52945949    -0.34820
N324        N  0.00299617  0.45246056  0.53935479    -0.29070
C325        C  0.99281978  0.44890567  0.54602779    -0.05180
C326        C  0.98724588  0.43886014  0.53986367     0.07040
C327        C  0.99464588  0.43657938  0.52944968     0.00840
H328        H  0.98974732  0.45327113  0.55470690     0.08490
H329        H  0.99343538  0.42914878  0.52256505     0.07570
N330        N  0.02907231  0.48103081  0.54456598    -0.36270
N331        N  0.03898816  0.48172533  0.53706378    -0.28450
C332        C  0.04592463  0.49185039  0.54025264    -0.03690
C333        C  0.04006342  0.49779998  0.55019720     0.04920
C334        C  0.02936111  0.49080069  0.55264015     0.03010
H335        H  0.05432878  0.49491510  0.53538035     0.08120
H336        H  0.02219574  0.49279380  0.55959457     0.06950
N337        N  0.50458265  0.95122720  0.03861683    -0.27430
N338        N  0.50707084  0.94209942  0.03049947    -0.35290
C339        C  0.49809257  0.93319554  0.03140539     0.00910
C340        C  0.48959545  0.93698501  0.04046706     0.06930
C341        C  0.49393542  0.94842590  0.04484485    -0.06170
H342        H  0.49759879  0.92478993  0.02565311     0.07600
H343        H  0.48960563  0.95435160  0.05190804     0.08800
Cu344      Cu  0.52193153  0.94254284  0.01787315     0.44170
Cu345      Cu  0.51547621  0.96721047  0.04088922     0.41990
Cu346      Cu  0.54048753  0.97116804  0.01871819     0.43880
N347        N  0.53610743  0.94662844  0.00511482    -0.34820
N348        N  0.54244421  0.95734116  0.00519586    -0.29070
C349        C  0.55076827  0.95729053  0.99571302    -0.05180
C350        C  0.54972037  0.94596853  0.98929756     0.07040
C351        C  0.54037286  0.93938508  0.99563437     0.00840
H352        H  0.55728837  0.96488871  0.99380080     0.08490
H353        H  0.53719480  0.92987150  0.99387377     0.07570
N354        N  0.53765912  0.98318033  0.03373486    -0.36270
N355        N  0.52827614  0.98185829  0.04179232    -0.28450
C356        C  0.52882738  0.99119864  0.05033124    -0.03690
C357        C  0.53911203  0.99864912  0.04750707     0.04920
C358        C  0.54453997  0.99332275  0.03697925     0.03010
H359        H  0.52225995  0.99245476  0.05801067     0.08120
H360        H  0.55274623  0.99665633  0.03194995     0.06950
N361        N  0.02641268  0.50207232  0.94627981    -0.27430
N362        N  0.03624527  0.50073575  0.95385418    -0.35290
C363        C  0.04325608  0.49099728  0.94982569     0.00910
C364        C  0.03749060  0.48587620  0.93926658     0.06930
C365        C  0.02688842  0.49320871  0.93725994    -0.06170
H366        H  0.05218097  0.48826686  0.95395473     0.07600
H367        H  0.02016480  0.49236700  0.92960986     0.08800
Cu368      Cu  0.04026504  0.51273719  0.96871425     0.44170
Cu369      Cu  0.01345380  0.51657075  0.94758531     0.41990
Cu370      Cu  0.02250720  0.54161200  0.96869985     0.43880
N371        N  0.04265013  0.52681904  0.98200196    -0.34820
N372        N  0.03644991  0.53761139  0.98167353    -0.29070
C373        C  0.04008286  0.54478506  0.99147379    -0.05180
C374        C  0.04887346  0.53809885  0.99833980     0.07040
C375        C  0.05032868  0.52676743  0.99211241     0.00840
H376        H  0.03633108  0.55400652  0.99363398     0.08490
H377        H  0.05645313  0.51905614  0.99475391     0.07570
N378        N  0.00708060  0.54248605  0.95685777    -0.36270
N379        N  0.00338915  0.53314745  0.94946706    -0.28450
C380        C  0.99267019  0.53651177  0.94354179    -0.03690
C381        C  0.98955667  0.54854596  0.94742882     0.04920
C382        C  0.99891329  0.55207271  0.95578491     0.03010
H383        H  0.98762347  0.53070056  0.93682683     0.08120
H384        H  0.99960648  0.56086838  0.96089759     0.06950
N385        N  0.35559822  0.83109019  0.15042304    -0.27430
N386        N  0.35497079  0.84283413  0.15443921    -0.35290
C387        C  0.36203473  0.85019849  0.14707824     0.00910
C388        C  0.36744775  0.84287020  0.13780006     0.06930
C389        C  0.36291761  0.83076204  0.14006949    -0.06170
H390        H  0.36374327  0.86007649  0.14891885     0.07600
H391        H  0.36489044  0.82227425  0.13483413     0.08800
Cu392      Cu  0.34749021  0.84850829  0.17120940     0.44170
Cu393      Cu  0.34811408  0.81623665  0.16076640     0.41990
Cu394      Cu  0.34547034  0.82556157  0.19437742     0.43880
N395        N  0.35045753  0.85261098  0.18977633    -0.34820
N396        N  0.35061624  0.84387341  0.19859709    -0.29070
C397        C  0.35545866  0.84885403  0.20923865    -0.05180
C398        C  0.35862471  0.86130472  0.20679948     0.07040
C399        C  0.35519343  0.86335623  0.19441522     0.00840
H400        H  0.35693155  0.84369014  0.21790698     0.08490
H401        H  0.35693604  0.87174098  0.18889260     0.07570
N402        N  0.33881925  0.80889866  0.18669385    -0.36270
N403        N  0.33993999  0.80528212  0.17481211    -0.28450
C404        C  0.33425212  0.79401934  0.17339552    -0.03690
C405        C  0.32902515  0.79053191  0.18486655     0.04920
C406        C  0.33224597  0.80019615  0.19303506     0.03010
H407        H  0.33409164  0.78880154  0.16465112     0.08120
H408        H  0.32976463  0.80102934  0.20288180     0.06950
N409        N  0.43854588  0.90980126  0.27018423    -0.27430
N410        N  0.42814757  0.90309269  0.27163903    -0.35290
C411        C  0.43103427  0.89154456  0.27579499     0.00910
C412        C  0.44391553  0.89068452  0.27718151     0.06930
C413        C  0.44846589  0.90249633  0.27358483    -0.06170
H414        H  0.42423239  0.88404973  0.27706166     0.07600
H415        H  0.45823910  0.90530095  0.27282393     0.08800
Cu416      Cu  0.41074105  0.90782578  0.26481575     0.44170
Cu417      Cu  0.43781521  0.92799057  0.26203954     0.41990
Cu418      Cu  0.41084878  0.92933783  0.23999322     0.43880
N419        N  0.39804888  0.90668053  0.25031198    -0.34820
N420        N  0.39838877  0.91429919  0.24050249    -0.29070
C421        C  0.39070594  0.90971686  0.23146790    -0.05180
C422        C  0.38539276  0.89862549  0.23588905     0.07040
C423        C  0.39034220  0.89697647  0.24782032     0.00840
H424        H  0.38981251  0.91362487  0.22208869     0.08490
H425        H  0.38917683  0.88885248  0.25386406     0.07570
N426        N  0.42240633  0.94452154  0.24431485    -0.36270
N427        N  0.43185103  0.94450187  0.25252639    -0.28450
C428        C  0.43587178  0.95652879  0.25402565    -0.03690
C429        C  0.42848154  0.96440204  0.24652917     0.04920
C430        C  0.42026703  0.95634417  0.24038160     0.03010
H431        H  0.44319527  0.95941846  0.26053888     0.08120
H432        H  0.41288176  0.95892130  0.23381701     0.06950
N433        N  0.58896511  0.90517934  0.38349273    -0.27430
N434        N  0.58533314  0.89331776  0.38442891    -0.35290
C435        C  0.59305432  0.88599913  0.37770719     0.00910
C436        C  0.60209008  0.89352838  0.37225822     0.06930
C437        C  0.59931701  0.90569454  0.37614696    -0.06170
H438        H  0.59164487  0.87601893  0.37616390     0.07600
H439        H  0.60390072  0.91429249  0.37316348     0.08800
Cu440      Cu  0.56816445  0.88760770  0.39100124     0.44170
Cu441      Cu  0.57790200  0.91962781  0.39065197     0.41990
Cu442      Cu  0.54419500  0.91043946  0.38969788     0.43880
N443        N  0.54992123  0.88318425  0.38652707    -0.34820
N444        N  0.54092781  0.89167573  0.38524964    -0.29070
C445        C  0.53071925  0.88609465  0.38009757    -0.05180
C446        C  0.53368431  0.87358315  0.37780408     0.07040
C447        C  0.54585816  0.87206483  0.38213106     0.00840
H448        H  0.52205583  0.89089117  0.37764504     0.08490
H449        H  0.55157486  0.86364965  0.38159517     0.07570
N450        N  0.55117409  0.92700664  0.39747516    -0.36270
N451        N  0.56323579  0.93013933  0.39826325    -0.28450
C452        C  0.56429663  0.94073299  0.40515979    -0.03690
C453        C  0.55236370  0.94439507  0.40899581     0.04920
C454        C  0.54429061  0.93558492  0.40370485     0.03010
H455        H  0.57315417  0.94524769  0.40749174     0.08120
H456        H  0.53412897  0.93531447  0.40432395     0.06950
N457        N  0.46952500  0.82438315  0.30198465    -0.27430
N458        N  0.46774187  0.83088080  0.31245447    -0.35290
C459        C  0.46373275  0.84250650  0.30963506     0.00910
C460        C  0.46280538  0.84362160  0.29671691     0.06930
C461        C  0.46653013  0.83188678  0.29209446    -0.06170
H462        H  0.46224540  0.84986935  0.31652886     0.07600
H463        H  0.46766543  0.82925668  0.28231307     0.08800
Cu464      Cu  0.47406484  0.82562741  0.32993521     0.44170
Cu465      Cu  0.47751928  0.80616893  0.30258637     0.41990
Cu466      Cu  0.49866486  0.80336904  0.32995707     0.43880
N467        N  0.48861698  0.82637355  0.34264205    -0.34820
N468        N  0.49836492  0.81867847  0.34218499    -0.29070
C469        C  0.50767012  0.82344194  0.34942511    -0.05180
C470        C  0.50348348  0.83466282  0.35469088     0.07040
C471        C  0.49139256  0.83621587  0.35008058     0.00840
H472        H  0.51705513  0.81951011  0.35010686     0.08490
H473        H  0.48558625  0.84454887  0.35088508     0.07570
N474        N  0.49472285  0.78866895  0.31756137    -0.36270
N475        N  0.48677849  0.78934760  0.30791470    -0.28450
C476        C  0.48559785  0.77771378  0.30284071    -0.03690
C477        C  0.49334872  0.76943057  0.30944349     0.04920
C478        C  0.49887284  0.77675166  0.31874130     0.03010
H479        H  0.47941553  0.77539174  0.29504435     0.08120
H480        H  0.50501787  0.77352223  0.32623340     0.06950
N481        N  0.32670436  0.79670423  0.97097882    -0.27430
N482        N  0.33513459  0.79995378  0.97958782    -0.35290
C483        C  0.34657408  0.79580607  0.97627634     0.00910
C484        C  0.34557251  0.78962068  0.96492421     0.06930
C485        C  0.33282481  0.79046680  0.96167124    -0.06170
H486        H  0.35520863  0.79812088  0.98122993     0.07600
H487        H  0.32846337  0.78717576  0.95304075     0.08800
Cu488      Cu  0.33208566  0.81320224  0.99317731     0.44170
Cu489      Cu  0.30759136  0.80215730  0.97322226     0.41990
Cu490      Cu  0.30426772  0.83067338  0.99368306     0.43880
N491        N  0.33153945  0.83138748  0.99947796    -0.34820
N492        N  0.32125412  0.83835566  0.99954402    -0.29070
C493        C  0.32431604  0.85009621  0.00335886    -0.05180
C494        C  0.33722232  0.85038167  0.00552999     0.07040
C495        C  0.34144243  0.83839440  0.00295098     0.00840
H496        H  0.31773280  0.85781290  0.00429939     0.08490
H497        H  0.35104719  0.83500346  0.00352433     0.07570
N498        N  0.28954573  0.81895225  0.98827647    -0.36270
N499        N  0.29037611  0.80891786  0.98086751    -0.28450
C500        C  0.27878092  0.80363042  0.98000344    -0.03690
C501        C  0.27044473  0.81050365  0.98741846     0.04920
C502        C  0.27762794  0.82017728  0.99235760     0.03010
H503        H  0.27662692  0.79521622  0.97465807     0.08120
H504        H  0.27442223  0.82762925  0.99852397     0.06950
N505        N  0.40990372  0.87488383  0.08573210    -0.27430
N506        N  0.40390945  0.86612032  0.07921358    -0.35290
C507        C  0.39798959  0.85828812  0.08711376     0.00910
C508        C  0.40020725  0.86234464  0.09923944     0.06930
C509        C  0.40782235  0.87291028  0.09809977    -0.06170
H510        H  0.39141411  0.85104377  0.08419659     0.07600
H511        H  0.41089124  0.87913451  0.10558983     0.08800
Cu512      Cu  0.40028394  0.86746100  0.06032317     0.44170
Cu513      Cu  0.41919314  0.88955548  0.07675553     0.41990
Cu514      Cu  0.40929233  0.89455297  0.04339978     0.43880
N515        N  0.39094330  0.87349287  0.04452034    -0.34820
N516        N  0.39398787  0.88367492  0.03807569    -0.29070
C517        C  0.38538352  0.88542628  0.02884988    -0.05180
C518        C  0.37646521  0.87593637  0.02983914     0.07040
C519        C  0.38028430  0.86859516  0.03984328     0.00840
H520        H  0.38547210  0.89311026  0.02215747     0.08490
H521        H  0.37559073  0.86033448  0.04353589     0.07570
N522        N  0.42525132  0.90213910  0.05177933    -0.36270
N523        N  0.42872259  0.90055032  0.06367849    -0.28450
C524        C  0.43997173  0.90613647  0.06549337    -0.03690
C525        C  0.44384891  0.91130007  0.05416656     0.04920
C526        C  0.43420357  0.90871988  0.04575454     0.03010
H527        H  0.44498428  0.90624739  0.07438689     0.08120
H528        H  0.43391893  0.91104656  0.03582669     0.06950
N529        N  0.41149408  0.77127579  0.93447827    -0.27430
N530        N  0.40547581  0.77290663  0.92367465    -0.35290
C531        C  0.39380910  0.77724435  0.92584256     0.00910
C532        C  0.39219092  0.77867948  0.93867191     0.06930
C533        C  0.40362456  0.77468084  0.94390133    -0.06170
H534        H  0.38662856  0.77807593  0.91862712     0.07600
H535        H  0.40579707  0.77372467  0.95382703     0.08800
Cu536      Cu  0.41123399  0.76560816  0.90675256     0.44170
Cu537      Cu  0.42948179  0.76265717  0.93507229     0.41990
Cu538      Cu  0.43164527  0.73948236  0.90978861     0.43880
N539        N  0.41026359  0.75034154  0.89497318    -0.34820
N540        N  0.41699560  0.74004485  0.89678930    -0.29070
C541        C  0.41192782  0.73063185  0.88994045    -0.05180
C542        C  0.40160483  0.73536147  0.88343772     0.07040
C543        C  0.40081362  0.74785211  0.88691199     0.00840
H544        H  0.41503358  0.72093091  0.89026384     0.08490
H545        H  0.39315721  0.75426192  0.88483897     0.07570
N546        N  0.44646101  0.74371717  0.92191838    -0.36270
N547        N  0.44607531  0.75241876  0.93085701    -0.28450
C548        C  0.45778887  0.75361357  0.93582279    -0.03690
C549        C  0.46580762  0.74510049  0.92987699     0.04920
C550        C  0.45824090  0.73912274  0.92106325     0.03010
H551        H  0.46036473  0.76034953  0.94304252     0.08120
H552        H  0.46123243  0.73239098  0.91402359     0.06950
N553        N  0.33383475  0.64965108  0.85466010    -0.27430
N554        N  0.34551448  0.65389929  0.85439156    -0.35290
C555        C  0.35288746  0.64654205  0.86149919     0.00910
C556        C  0.34560734  0.63702839  0.86657780     0.06930
C557        C  0.33354116  0.63915622  0.86179337    -0.06170
H558        H  0.36269787  0.64853603  0.86349593     0.07600
H559        H  0.32509834  0.63374512  0.86350418     0.08800
Cu560      Cu  0.35074367  0.67096912  0.84732110     0.44170
Cu561      Cu  0.31904944  0.66004171  0.84704185     0.41990
Cu562      Cu  0.32740246  0.69412589  0.84508176     0.43880
N563        N  0.35452565  0.68956134  0.85027794    -0.34820
N564        N  0.34579769  0.69840870  0.85020739    -0.29070
C565        C  0.35079590  0.70906894  0.85501166    -0.05180
C566        C  0.36317299  0.70654158  0.85838665     0.07040
C567        C  0.36521355  0.69415306  0.85519967     0.00840
H568        H  0.34562197  0.71768735  0.85666681     0.08490
H569        H  0.37356403  0.68862673  0.85713782     0.07570
N570        N  0.31073073  0.68611192  0.83861039    -0.36270
N571        N  0.30762759  0.67403309  0.83935877    -0.28450
C572        C  0.29638665  0.67231052  0.83366570    -0.03690
C573        C  0.29237276  0.68379290  0.82905677     0.04920
C574        C  0.30163214  0.69231149  0.83233767     0.03010
H575        H  0.29171043  0.66330959  0.83258885     0.08120
H576        H  0.30188008  0.70224670  0.83009017     0.06950
N577        N  0.80142198  0.96722349  0.32687192    -0.27430
N578        N  0.81225257  0.96445470  0.33243320    -0.35290
C579        C  0.81013939  0.95958347  0.34386252     0.00910
C580        C  0.79735106  0.95923562  0.34594225     0.06930
C581        C  0.79199071  0.96410918  0.33492212    -0.06170
H582        H  0.81748447  0.95695661  0.35046291     0.07600
H583        H  0.78204981  0.96527881  0.33293813     0.08800
Cu584      Cu  0.82973595  0.97013017  0.32664159     0.44170
Cu585      Cu  0.80118385  0.97569391  0.30872250     0.41990
Cu586      Cu  0.82858881  0.99638457  0.30712614     0.43880
N587        N  0.84222037  0.98469628  0.32866411    -0.34820
N588        N  0.84134886  0.99501044  0.32179864    -0.29070
C589        C  0.84831998  0.00411983  0.32718794    -0.05180
C590        C  0.85353859  0.99932113  0.33817718     0.07040
C591        C  0.84962586  0.98693131  0.33870507     0.00840
H592        H  0.84881637  0.01372070  0.32381957     0.08490
H593        H  0.85090388  0.98047740  0.34649835     0.07570
N594        N  0.81645782  0.99326016  0.29217263    -0.36270
N595        N  0.80680316  0.98536024  0.29211090    -0.28450
C596        C  0.80247264  0.98445720  0.28009084    -0.03690
C597        C  0.80971934  0.99227373  0.27233423     0.04920
C598        C  0.81839875  0.99764580  0.28049686     0.03010
H599        H  0.79509917  0.97805787  0.27713611     0.08120
H600        H  0.82603701  0.00393685  0.27805380     0.06950
N601        N  0.88039338  0.08410576  0.40722016    -0.27430
N602        N  0.88148165  0.07954312  0.39570819    -0.35290
C603        C  0.87615801  0.08740012  0.38746105     0.00910
C604        C  0.87179454  0.09776270  0.39390097     0.06930
C605        C  0.87443457  0.09532828  0.40652431    -0.06170
H606        H  0.87512483  0.08540309  0.37751167     0.07600
H607        H  0.87212706  0.10118680  0.41453809     0.08800
Cu608      Cu  0.88834433  0.06223687  0.39117590     0.44170
Cu609      Cu  0.88680244  0.07363669  0.42251635     0.41990
Cu610      Cu  0.88966760  0.03921568  0.41383297     0.43880
N611        N  0.88655886  0.04371575  0.38660450    -0.34820
N612        N  0.88618301  0.03473694  0.39516297    -0.29070
C613        C  0.88212163  0.02403021  0.38964908    -0.05180
C614        C  0.87981911  0.02661844  0.37702380     0.07040
C615        C  0.88269425  0.03917580  0.37548731     0.00840
H616        H  0.88002000  0.01538676  0.39461859     0.08490
H617        H  0.88100674  0.04486551  0.36718889     0.07570
N618        N  0.89648524  0.04767400  0.43009558    -0.36270
N619        N  0.89555955  0.05972193  0.43327446    -0.28450
C620        C  0.90223325  0.06165816  0.44392628    -0.03690
C621        C  0.90776015  0.05039109  0.44740999     0.04920
C622        C  0.90378741  0.04173429  0.43855678     0.03010
H623        H  0.90340682  0.07070286  0.44849109     0.08120
H624        H  0.90624023  0.03185674  0.43811135     0.06950
N625        N  0.77085529  0.93397588  0.41200535    -0.27430
N626        N  0.77096516  0.92335278  0.40553144    -0.35290
C627        C  0.77542683  0.92537078  0.39394155     0.00910
C628        C  0.77880725  0.93784582  0.39281781     0.06930
C629        C  0.77558201  0.94316475  0.40445865    -0.06170
H630        H  0.77552926  0.91828720  0.38661378     0.07600
H631        H  0.77642693  0.95296752  0.40711689     0.08800
Cu632      Cu  0.76302979  0.90674434  0.41100352     0.44170
Cu633      Cu  0.76291898  0.93416941  0.43038837     0.41990
Cu634      Cu  0.73918238  0.90813733  0.43285373     0.43880
N635        N  0.74841742  0.89427948  0.41054111    -0.34820
N636        N  0.73877869  0.89511189  0.41829699    -0.29070
C637        C  0.72942960  0.88763130  0.41401299    -0.05180
C638        C  0.73351055  0.88193796  0.40296871     0.07040
C639        C  0.74555655  0.88643682  0.40106761     0.00840
H640        H  0.72007358  0.88719126  0.41801868     0.08490
H641        H  0.75139057  0.88497547  0.39284687     0.07570
N642        N  0.74411187  0.92032252  0.44736740    -0.36270
N643        N  0.75286322  0.92925402  0.44702691    -0.28450
C644        C  0.75410742  0.93404232  0.45881791    -0.03690
C645        C  0.74555221  0.92802597  0.46675090     0.04920
C646        C  0.73953624  0.91936320  0.45911787     0.03010
H647        H  0.76080433  0.94127403  0.46146886     0.08120
H648        H  0.73267187  0.91241241  0.46202815     0.06950
N649        N  0.65102809  0.85501056  0.33203154    -0.27430
N650        N  0.65388310  0.85278049  0.34396292    -0.35290
C651        C  0.64617498  0.85935461  0.35142672     0.00910
C652        C  0.63795485  0.86603882  0.34393357     0.06930
C653        C  0.64118712  0.86305478  0.33162693    -0.06170
H654        H  0.64702523  0.85985172  0.36158546     0.07600
H655        H  0.63723674  0.86701606  0.32308948     0.08800
Cu656      Cu  0.67004914  0.84431911  0.35022584     0.44170
Cu657      Cu  0.66219455  0.84830376  0.31740886     0.41990
Cu658      Cu  0.69468680  0.84284121  0.32853248     0.43880
N659        N  0.68842867  0.84693739  0.35551525    -0.34820
N660        N  0.69773333  0.84717791  0.34730637    -0.29070
C661        C  0.70805218  0.85198717  0.35293986    -0.05180
C662        C  0.70491956  0.85509882  0.36524037     0.07040
C663        C  0.69245795  0.85161338  0.36656258     0.00840
H664        H  0.71693994  0.85363955  0.34825158     0.08490
H665        H  0.68645294  0.85341224  0.37458886     0.07570
N666        N  0.68796382  0.83803404  0.31082700    -0.36270
N667        N  0.67635980  0.84004949  0.30667113    -0.28450
C668        C  0.67527211  0.83520146  0.29498660    -0.03690
C669        C  0.68675596  0.82997439  0.29160813     0.04920
C670        C  0.69448760  0.83181747  0.30197640     0.03010
H671        H  0.66668063  0.83526958  0.28945588     0.08120
H672        H  0.70400494  0.82841311  0.30328758     0.06950
N673        N  0.83121200  0.15095501  0.35983982    -0.27430
N674        N  0.84274983  0.15429999  0.35660646    -0.35290
C675        C  0.85108373  0.14658704  0.36199163     0.00910
C676        C  0.84465974  0.13772318  0.36894436     0.06930
C677        C  0.83197063  0.14068674  0.36733500    -0.06170
H678        H  0.86119629  0.14761458  0.36114836     0.07600
H679        H  0.82393228  0.13573861  0.37116285     0.08800
Cu680      Cu  0.84785805  0.17020320  0.34712061     0.44170
Cu681      Cu  0.81571385  0.16139856  0.35381378     0.41990
Cu682      Cu  0.82649615  0.19410311  0.34707293     0.43880
N683        N  0.85362175  0.18843669  0.34894817    -0.34820
N684        N  0.84542551  0.19767654  0.35002076    -0.29070
C685        C  0.85140911  0.20793236  0.35449447    -0.05180
C686        C  0.86403144  0.20489215  0.35623245     0.07040
C687        C  0.86502377  0.19241527  0.35270173     0.00840
H688        H  0.84678914  0.21662383  0.35711848     0.08490
H689        H  0.87304722  0.18629129  0.35414471     0.07570
N690        N  0.80953797  0.18630988  0.34130569    -0.36270
N691        N  0.80536649  0.17485168  0.34389551    -0.28450
C692        C  0.79423790  0.17312280  0.33796947    -0.03690
C693        C  0.79143580  0.18388837  0.33105541     0.04920
C694        C  0.80135294  0.19201595  0.33354550     0.03010
H695        H  0.78868123  0.16462970  0.33873069     0.08120
H696        H  0.80276075  0.20135059  0.32971924     0.06950
N697        N  0.91220501  0.26992133  0.43439122    -0.27430
N698        N  0.90576121  0.27097362  0.42375063    -0.35290
C699        C  0.89405190  0.27506758  0.42613491     0.00910
C700        C  0.89288141  0.27681407  0.43891677     0.06930
C701        C  0.90459476  0.27355924  0.44395512    -0.06170
H702        H  0.88665452  0.27590236  0.41913175     0.07600
H703        H  0.90711793  0.27318589  0.45383797     0.08800
Cu704      Cu  0.91122118  0.26339653  0.40693667     0.44170
Cu705      Cu  0.93042462  0.26171458  0.43451498     0.41990
Cu706      Cu  0.93278240  0.23825642  0.40902579     0.43880
N707        N  0.90980990  0.24771522  0.39586721    -0.34820
N708        N  0.91729563  0.23785245  0.39699830    -0.29070
C709        C  0.91229643  0.22820357  0.39039663    -0.05180
C710        C  0.90100522  0.23226076  0.38518115     0.07040
C711        C  0.89981799  0.24467953  0.38873162     0.00840
H712        H  0.91615874  0.21878116  0.39006695     0.08490
H713        H  0.89189484  0.25084235  0.38693121     0.07570
N714        N  0.94758953  0.24303484  0.42100716    -0.36270
N715        N  0.94712877  0.25173112  0.42996150    -0.28450
C716        C  0.95885006  0.25304477  0.43489351    -0.03690
C717        C  0.96693961  0.24461321  0.42892875     0.04920
C718        C  0.95941573  0.23856524  0.42013295     0.03010
H719        H  0.96136380  0.25975239  0.44216182     0.08120
H720        H  0.96244587  0.23179178  0.41315084     0.06950
N721        N  0.82722346  0.29620418  0.47027449    -0.27430
N722        N  0.83529227  0.29856059  0.47948928    -0.35290
C723        C  0.84698260  0.29545843  0.47597324     0.00910
C724        C  0.84655810  0.29095503  0.46382697     0.06930
C725        C  0.83380701  0.29134129  0.46046225    -0.06170
H726        H  0.85534289  0.29719952  0.48158661     0.07600
H727        H  0.82978943  0.28897846  0.45137254     0.08800
Cu728      Cu  0.83143856  0.30947624  0.49477232     0.44170
Cu729      Cu  0.80810636  0.30161818  0.47249313     0.41990
Cu730      Cu  0.80531983  0.32914990  0.49456568     0.43880
N731        N  0.83192817  0.32696413  0.50269638    -0.34820
N732        N  0.82244951  0.33497080  0.50222504    -0.29070
C733        C  0.82637645  0.34612148  0.50695433    -0.05180
C734        C  0.83892565  0.34484677  0.51059112     0.07040
C735        C  0.84211551  0.33264941  0.50751085     0.00840
H736        H  0.82060307  0.35448743  0.50764754     0.08490
H737        H  0.85132181  0.32832467  0.50821701     0.07570
N738        N  0.79025467  0.31831092  0.48799375    -0.36270
N739        N  0.79098210  0.30861911  0.48012184    -0.28450
C740        C  0.77928706  0.30367712  0.47875136    -0.03690
C741        C  0.77088028  0.31052518  0.48612137     0.04920
C742        C  0.77825259  0.31963874  0.49184999     0.03010
H743        H  0.77713635  0.29541658  0.47317116     0.08120
H744        H  0.77512663  0.32668329  0.49851778     0.06950
N745        N  0.90484040  0.38027149  0.58688621    -0.27430
N746        N  0.89323039  0.38234921  0.58287489    -0.35290
C747        C  0.88503764  0.37719572  0.59090481     0.00910
C748        C  0.89172028  0.37175156  0.60063285     0.06930
C749        C  0.90432272  0.37370480  0.59777190    -0.06170
H750        H  0.87491869  0.37715979  0.58958141     0.07600
H751        H  0.91243775  0.37065882  0.60317696     0.08800
Cu752      Cu  0.88856867  0.39027585  0.56587376     0.44170
Cu753      Cu  0.92010235  0.38654332  0.57649281     0.41990
Cu754      Cu  0.91160025  0.38876291  0.54253453     0.43880
N755        N  0.88396712  0.38887645  0.54716529    -0.34820
N756        N  0.89251998  0.38700046  0.53837067    -0.29070
C757        C  0.88676398  0.38225697  0.52806520    -0.05180
C758        C  0.87395745  0.38124321  0.53054527     0.07040
C759        C  0.87260607  0.38549618  0.54275822     0.00840
H760        H  0.89167875  0.37840181  0.52002019     0.08490
H761        H  0.86437194  0.38428135  0.54863251     0.07570
N762        N  0.92849038  0.39482255  0.55049824    -0.36270
N763        N  0.93126819  0.39465982  0.56266870    -0.28450
C764        C  0.94184490  0.40139844  0.56461254    -0.03690
C765        C  0.94613971  0.40582690  0.55309363     0.04920
C766        C  0.93737097  0.40143438  0.54440417     0.03010
H767        H  0.94554442  0.40356558  0.57386389     0.08120
H768        H  0.93708664  0.40339842  0.53440372     0.06950
N769        N  0.96844574  0.32516684  0.80194656    -0.27430
N770        N  0.96717897  0.33148282  0.81259762    -0.35290
C771        C  0.96255890  0.34295693  0.81027591     0.00910
C772        C  0.96069539  0.34428906  0.79748430     0.06930
C773        C  0.96447276  0.33272201  0.79240035    -0.06170
H774        H  0.96123784  0.35010436  0.81742697     0.07600
H775        H  0.96438969  0.33003311  0.78256642     0.08800
Cu776      Cu  0.97438782  0.32632216  0.82968977     0.44170
Cu777      Cu  0.97650588  0.30687287  0.80218588     0.41990
Cu778      Cu  0.99813130  0.30384970  0.82968937     0.43880
N779        N  0.98928619  0.32740290  0.84187917    -0.34820
N780        N  0.99868173  0.31929775  0.84164822    -0.29070
C781        C  0.00816478  0.32379860  0.84882084    -0.05180
C782        C  0.00459407  0.33550565  0.85347150     0.07040
C783        C  0.99249750  0.33735264  0.84897650     0.00840
H784        H  0.01710402  0.31909148  0.85012463     0.08490
H785        H  0.98684167  0.34577729  0.84992145     0.07570
N786        N  0.99385014  0.28936084  0.81722715    -0.36270
N787        N  0.98585692  0.29001005  0.80760512    -0.28450
C788        C  0.98477692  0.27834431  0.80253597    -0.03690
C789        C  0.99265932  0.27013698  0.80910957     0.04920
C790        C  0.99811644  0.27749953  0.81837950     0.03010
H791        H  0.97863294  0.27596197  0.79472756     0.08120
H792        H  0.00437423  0.27434445  0.82581061     0.06950
N793        N  0.08842000  0.40456933  0.88296376    -0.27430
N794        N  0.08473849  0.39282213  0.88475478    -0.35290
C795        C  0.09234986  0.38502935  0.87844626     0.00910
C796        C  0.10135010  0.39213963  0.87239506     0.06930
C797        C  0.09866452  0.40454237  0.87547283    -0.06170
H798        H  0.09090411  0.37497052  0.87762301     0.07600
H799        H  0.10322897  0.41290287  0.87185450     0.08800
Cu800      Cu  0.06767751  0.38767808  0.89209797     0.44170
Cu801      Cu  0.07767013  0.41959665  0.88921271     0.41990
Cu802      Cu  0.04400396  0.41077671  0.88995614     0.43880
N803        N  0.04917953  0.38325220  0.88875219    -0.34820
N804        N  0.04032645  0.39181400  0.88706119    -0.29070
C805        C  0.02999659  0.38615882  0.88226602    -0.05180
C806        C  0.03259904  0.37342319  0.88087710     0.07040
C807        C  0.04485691  0.37198296  0.88504140     0.00840
H808        H  0.02163383  0.39108871  0.87912773     0.08490
H809        H  0.05055932  0.36355813  0.88447037     0.07570
N810        N  0.05127585  0.42787489  0.89606159    -0.36270
N811        N  0.06338995  0.43093621  0.89620148    -0.28450
C812        C  0.06481576  0.44194015  0.90234987    -0.03690
C813        C  0.05304277  0.44600372  0.90606316     0.04920
C814        C  0.04469879  0.43689541  0.90199351     0.03010
H815        H  0.07378236  0.44638319  0.90437870     0.08120
H816        H  0.03468243  0.43648926  0.90384252     0.06950
N817        N  0.85400861  0.33116024  0.65098650    -0.27430
N818        N  0.85209405  0.34250728  0.65564108    -0.35290
C819        C  0.85828817  0.35099883  0.64876299     0.00910
C820        C  0.86440693  0.34487835  0.63905856     0.06930
C821        C  0.86134524  0.33221008  0.64066167    -0.06170
H822        H  0.85882058  0.36089461  0.65113909     0.07600
H823        H  0.86426878  0.32432957  0.63493169     0.08800
Cu824      Cu  0.84412833  0.34633761  0.67268484     0.44170
Cu825      Cu  0.84774861  0.31540979  0.66072528     0.41990
Cu826      Cu  0.84927491  0.32292804  0.69502070     0.43880
N827        N  0.84907007  0.35054089  0.69079021    -0.34820
N828        N  0.85198880  0.34183516  0.69917249    -0.29070
C829        C  0.85760680  0.34743600  0.70911823    -0.05180
C830        C  0.85844734  0.36022068  0.70657325     0.07040
C831        C  0.85283127  0.36184420  0.69495989     0.00840
H832        H  0.86148702  0.34251623  0.71717339     0.08490
H833        H  0.85228586  0.37046120  0.68954366     0.07570
N834        N  0.84238366  0.30629971  0.68730442    -0.36270
N835        N  0.84123736  0.30380841  0.67510302    -0.28450
C836        C  0.83457361  0.29309745  0.67368818    -0.03690
C837        C  0.83163719  0.28857429  0.68552987     0.04920
C838        C  0.83667558  0.29715415  0.69391360     0.03010
H839        H  0.83174393  0.28912448  0.66471653     0.08120
H840        H  0.83558065  0.29717333  0.70405131     0.06950
N841        N  0.93607224  0.40981685  0.76899458    -0.27430
N842        N  0.92534743  0.40376535  0.77087417    -0.35290
C843        C  0.92760336  0.39247620  0.77598311     0.00910
C844        C  0.94039334  0.39112042  0.77768187     0.06930
C845        C  0.94559929  0.40227110  0.77301519    -0.06170
H846        H  0.92040833  0.38549048  0.77783732     0.07600
H847        H  0.95550455  0.40465048  0.77253857     0.08800
Cu848      Cu  0.90810609  0.40907253  0.76412667     0.44170
Cu849      Cu  0.93592608  0.42785714  0.76039824     0.41990
Cu850      Cu  0.90796566  0.43040064  0.73945597     0.43880
N851        N  0.89518882  0.40784382  0.74986961    -0.34820
N852        N  0.89548042  0.41536298  0.73999711    -0.29070
C853        C  0.88795599  0.41053697  0.73095840    -0.05180
C854        C  0.88272278  0.39940186  0.73545320     0.07040
C855        C  0.88765771  0.39799271  0.74743909     0.00840
H856        H  0.88704411  0.41436527  0.72154818     0.08490
H857        H  0.88699325  0.38976127  0.75340538     0.07570
N858        N  0.92004198  0.44521151  0.74376938    -0.36270
N859        N  0.92995185  0.44471352  0.75140816    -0.28450
C860        C  0.93445069  0.45657861  0.75288629    -0.03690
C861        C  0.92689232  0.46484422  0.74600629     0.04920
C862        C  0.91803317  0.45719480  0.74024927     0.03010
H863        H  0.94226120  0.45909680  0.75897372     0.08120
H864        H  0.91035783  0.46016835  0.73420440     0.06950
N865        N  0.37718014  0.58471778  0.90934794    -0.27430
N866        N  0.36855629  0.57826030  0.90307548    -0.35290
C867        C  0.36084510  0.58620064  0.89701484     0.00910
C868        C  0.36484101  0.59829574  0.89941284     0.06930
C869        C  0.37524624  0.59709533  0.90728875    -0.06170
H870        H  0.35374585  0.58334226  0.89024051     0.07600
H871        H  0.38139080  0.60455803  0.91057478     0.08800
Cu872      Cu  0.37003460  0.55946251  0.89923306     0.44170
Cu873      Cu  0.39165218  0.57563483  0.91895966     0.41990
Cu874      Cu  0.39695444  0.54248428  0.90866345     0.43880
N875        N  0.37635651  0.54391672  0.88975581    -0.34820
N876        N  0.38641357  0.53737680  0.89305217    -0.29070
C877        C  0.38832330  0.52822956  0.88444894    -0.05180
C878        C  0.37919762  0.52948844  0.87516365     0.07040
C879        C  0.37173385  0.53941196  0.87890198     0.00840
H880        H  0.39584328  0.52136361  0.88482105     0.08490
H881        H  0.36349967  0.54307800  0.87410005     0.07570
N882        N  0.40464167  0.55074525  0.92461125    -0.36270
N883        N  0.40288418  0.56254580  0.92829656    -0.28450
C884        C  0.40860110  0.56423378  0.93952228    -0.03690
C885        C  0.41419676  0.55300888  0.94293865     0.04920
C886        C  0.41149535  0.54466943  0.93336017     0.03010
H887        H  0.40830237  0.57283744  0.94498300     0.08120
H888        H  0.41395613  0.53478988  0.93296868     0.06950
N889        N  0.29771328  0.47176089  0.82730783    -0.27430
N890        N  0.30202373  0.47991962  0.83568395    -0.35290
C891        C  0.29893963  0.47627582  0.84733370     0.00910
C892        C  0.29226420  0.46518982  0.84660193     0.06930
C893        C  0.29157629  0.46253209  0.83368313    -0.06170
H894        H  0.30216650  0.48092920  0.85583339     0.07600
H895        H  0.28765383  0.45416018  0.82936547     0.08800
Cu896      Cu  0.31527902  0.49331285  0.83222509     0.44170
Cu897      Cu  0.30240204  0.47409721  0.80796981     0.41990
Cu898      Cu  0.33243816  0.49274698  0.80484184     0.43880
N899        N  0.33377538  0.49849229  0.83194580    -0.34820
N900        N  0.34071612  0.49819530  0.82167711    -0.29070
C901        C  0.35266455  0.50135377  0.82474851    -0.05180
C902        C  0.35313364  0.50324380  0.83768902     0.07040
C903        C  0.34098017  0.50148014  0.84187185     0.00840
H904        H  0.36037754  0.50211271  0.81814694     0.08490
H905        H  0.33758065  0.50239812  0.85143665     0.07570
N906        N  0.32041879  0.48794071  0.79013455    -0.36270
N907        N  0.30984148  0.48130854  0.79079793    -0.28450
C908        C  0.30485163  0.48058375  0.77903170    -0.03690
C909        C  0.31258640  0.48718621  0.77067989     0.04920
C910        C  0.32231585  0.49160411  0.77819382     0.03010
H911        H  0.29635003  0.47544158  0.77673349     0.08120
H912        H  0.33026057  0.49725708  0.77522261     0.06950
N913        N  0.15010900  0.35295975  0.83244381    -0.27430
N914        N  0.15397390  0.35161730  0.84421555    -0.35290
C915        C  0.14642896  0.35817577  0.85186833     0.00910
C916        C  0.13727678  0.36389382  0.84463229     0.06930
C917        C  0.13980335  0.36038058  0.83231248    -0.06170
H918        H  0.14797710  0.35934249  0.86189094     0.07600
H919        H  0.13506253  0.36363318  0.82387386     0.08800
Cu920      Cu  0.17106991  0.34431413  0.84942165     0.44170
Cu921      Cu  0.16069345  0.34629888  0.81750734     0.41990
Cu922      Cu  0.19443126  0.34633145  0.82588926     0.43880
N923        N  0.18968682  0.34732748  0.85358094    -0.34820
N924        N  0.19834688  0.34911011  0.84485860    -0.29070
C925        C  0.20879041  0.35378841  0.85038648    -0.05180
C926        C  0.20652783  0.35488830  0.86321917     0.07040
C927        C  0.19429082  0.35078916  0.86484552     0.00840
H928        H  0.21711684  0.35683707  0.84536973     0.08490
H929        H  0.18871044  0.35149476  0.87333406     0.07570
N930        N  0.18710028  0.34014009  0.80881361    -0.36270
N931        N  0.17493497  0.33959903  0.80599495    -0.28450
C932        C  0.17347713  0.33353346  0.79494960    -0.03690
C933        C  0.18528021  0.33032904  0.79054933     0.04920
C934        C  0.19368793  0.33460132  0.79954921     0.03010
H935        H  0.16448750  0.33135093  0.79061218     0.08120
H936        H  0.20378667  0.33317355  0.79969413     0.06950
N937        N  0.27237915  0.43312433  0.91151218    -0.27430
N938        N  0.27321898  0.42280695  0.90458213    -0.35290
C939        C  0.27722476  0.42570130  0.89296093     0.00910
C940        C  0.27922405  0.43847235  0.89238584     0.06930
C941        C  0.27610227  0.44298319  0.90432292    -0.06170
H942        H  0.27790027  0.41905982  0.88525114     0.07600
H943        H  0.27589011  0.45272965  0.90728869     0.08800
Cu944      Cu  0.26573538  0.40577282  0.90942556     0.44170
Cu945      Cu  0.26433532  0.43252454  0.92977890     0.41990
Cu946      Cu  0.24159212  0.40624034  0.93206317     0.43880
N947        N  0.25042584  0.39416258  0.90832344    -0.34820
N948        N  0.24090527  0.39463217  0.91628785    -0.29070
C949        C  0.23128717  0.38778690  0.91153520    -0.05180
C950        C  0.23499768  0.38310106  0.89992260     0.07040
C951        C  0.24719066  0.38722910  0.89826811     0.00840
H952        H  0.22206960  0.38695986  0.91579252     0.08490
H953        H  0.25300938  0.38597732  0.89000333     0.07570
N954        N  0.24616305  0.41824010  0.94691699    -0.36270
N955        N  0.25453013  0.42750992  0.94645331    -0.28450
C956        C  0.25561692  0.43252068  0.95814862    -0.03690
C957        C  0.24738633  0.42626902  0.96623325     0.04920
C958        C  0.24170078  0.41722452  0.95872938     0.03010
H959        H  0.26199977  0.44008400  0.96063719     0.08120
H960        H  0.23513594  0.41003779  0.96174828     0.06950
N961        N  0.83475989  0.12588969  0.83099419    -0.27430
N962        N  0.82789021  0.11824839  0.83796435    -0.35290
C963        C  0.83537319  0.11026170  0.84421294     0.00910
C964        C  0.84766827  0.11278578  0.84095640     0.06930
C965        C  0.84701461  0.12289858  0.83264965    -0.06170
H966        H  0.83211263  0.10367328  0.85126455     0.07600
H967        H  0.85483628  0.12787912  0.82842288     0.08800
Cu968      Cu  0.80911348  0.12050411  0.84101431     0.44170
Cu969      Cu  0.82614670  0.14013646  0.82060167     0.41990
Cu970      Cu  0.79318931  0.14771860  0.83156801     0.43880
N971        N  0.79313386  0.12653791  0.84967891    -0.34820
N972        N  0.78694126  0.13685326  0.84656951    -0.29070
C973        C  0.77738039  0.13847450  0.85478870    -0.05180
C974        C  0.77803228  0.12881554  0.86357126     0.07040
C975        C  0.78802410  0.12142710  0.85996663     0.00840
H976        H  0.77069432  0.14615643  0.85454137     0.08490
H977        H  0.79143149  0.11298905  0.86457094     0.07570
N978        N  0.80178790  0.15452333  0.81534995    -0.36270
N979        N  0.81327238  0.15175401  0.81131843    -0.28450
C980        C  0.81484287  0.15678404  0.79977732    -0.03690
C981        C  0.80391269  0.16311753  0.79642984     0.04920
C982        C  0.79587521  0.16142288  0.80653281     0.03010
H983        H  0.82306995  0.15526169  0.79398253     0.08120
H984        H  0.78620393  0.16456589  0.80724121     0.06950
N985        N  0.72338680  0.04551129  0.91075978    -0.27430
N986        N  0.73215198  0.04876442  0.90255590    -0.35290
C987        C  0.72897429  0.04473278  0.89100042     0.00910
C988        C  0.71755183  0.03862372  0.89167805     0.06930
C989        C  0.71412746  0.03939819  0.90436580    -0.06170
H990        H  0.73400952  0.04718826  0.88249204     0.07600
H991        H  0.70537304  0.03620944  0.90848832     0.08800
Cu992      Cu  0.74547143  0.06226975  0.90590523     0.44170
Cu993      Cu  0.72519729  0.05093968  0.92997120     0.41990
Cu994      Cu  0.74431313  0.08008636  0.93362816     0.43880
N995        N  0.75003303  0.08099581  0.90632574    -0.34820
N996        N  0.74941683  0.08804183  0.91654868    -0.29070
C997        C  0.75188997  0.10009302  0.91336613    -0.05180
C998        C  0.75369842  0.10053471  0.90042609     0.07040
C999        C  0.75260537  0.08825118  0.89634651     0.00840
H1000       H  0.75215539  0.10791993  0.91989404     0.08490
H1001       H  0.75359469  0.08481170  0.88679486     0.07570
N1002       N  0.73937347  0.06820222  0.94835614    -0.36270
N1003       N  0.73237009  0.05788581  0.94740036    -0.28450
C1004       C  0.73164307  0.05254344  0.95897358    -0.03690
C1005       C  0.73872881  0.05969446  0.96743742     0.04920
C1006       C  0.74333547  0.06956661  0.96033502     0.03010
H1007       H  0.72665274  0.04389849  0.96102244     0.08120
H1008       H  0.74922512  0.07722478  0.96363537     0.06950
N1009       N  0.60536493  0.89823785  0.90525298    -0.27430
N1010       N  0.60400837  0.90312264  0.89391108    -0.35290
C1011       C  0.61044336  0.89629855  0.88557969     0.00910
C1012       C  0.61613448  0.88636074  0.89177413     0.06930
C1013       C  0.61256158  0.88779233  0.90433555    -0.06170
H1014       H  0.61143849  0.89888427  0.87577247     0.07600
H1015       H  0.61504169  0.88187718  0.91224389     0.08800
Cu1016     Cu  0.59638857  0.92027325  0.88992386     0.44170
Cu1017     Cu  0.59862924  0.90784357  0.92088926     0.41990
Cu1018     Cu  0.59934391  0.94236829  0.91379119     0.43880
N1019       N  0.60067746  0.93858252  0.88614175    -0.34820
N1020       N  0.60267971  0.94696056  0.89509814    -0.29070
C1021       C  0.60782967  0.95732170  0.88990747    -0.05180
C1022       C  0.60936133  0.95510750  0.87708283     0.07040
C1023       C  0.60458631  0.94317904  0.87507344     0.00840
H1024       H  0.61054845  0.96563592  0.89514304     0.08490
H1025       H  0.60482289  0.93784601  0.86638024     0.07570
N1026       N  0.59260039  0.93422899  0.93023779    -0.36270
N1027       N  0.59181086  0.92198963  0.93259894    -0.28450
C1028       C  0.58541185  0.92031096  0.94340669    -0.03690
C1029       C  0.58226261  0.93201720  0.94812479     0.04920
C1030       C  0.58690223  0.94059690  0.93955106     0.03010
H1031       H  0.58300214  0.91124385  0.94738326     0.08120
H1032       H  0.58564969  0.95070887  0.93972100     0.06950
N1033       N  0.68484451  0.02010569  0.82639959    -0.27430
N1034       N  0.67441341  0.02162875  0.83299366    -0.35290
C1035       C  0.67719391  0.02616006  0.84446458     0.00910
C1036       C  0.69005655  0.02788138  0.84539157     0.06930
C1037       C  0.69466823  0.02380673  0.83372889    -0.06170
H1038       H  0.67039895  0.02691276  0.85200252     0.07600
H1039       H  0.70446476  0.02300895  0.83104675     0.08800
Cu1040     Cu  0.65727443  0.01407640  0.82836596     0.44170
Cu1041     Cu  0.68431413  0.01129696  0.80840272     0.41990
Cu1042     Cu  0.65722955  0.98947753  0.80639802     0.43880
N1043       N  0.64504019  0.99924493  0.82963642    -0.34820
N1044       N  0.64528995  0.98956893  0.82183716    -0.29070
C1045       C  0.63818614  0.98023328  0.82666678    -0.05180
C1046       C  0.63336151  0.98432535  0.83809801     0.07040
C1047       C  0.63796927  0.99637463  0.83967639     0.00840
H1048       H  0.63745749  0.97086718  0.82270356     0.08490
H1049       H  0.63710684  0.00222794  0.84798293     0.07570
N1050       N  0.66950949  0.99307882  0.79163104    -0.36270
N1051       N  0.67909086  0.00109943  0.79191831    -0.28450
C1052       C  0.68417197  0.00155870  0.78022311    -0.03690
C1053       C  0.67762662  0.99326165  0.77236525     0.04920
C1054       C  0.66835133  0.98822731  0.77997688     0.03010
H1055       H  0.69196778  0.00756592  0.77757398     0.08120
H1056       H  0.66090197  0.98185757  0.77712096     0.06950
N1057       N  0.52058406  0.66002966  0.30170215    -0.27430
N1058       N  0.52297222  0.65425586  0.31247585    -0.35290
C1059       C  0.52805764  0.64294106  0.31025735     0.00910
C1060       C  0.52919700  0.64131708  0.29742522     0.06930
C1061       C  0.52422550  0.65231669  0.29218393    -0.06170
H1062       H  0.53034544  0.63615056  0.31751647     0.07600
H1063       H  0.52331908  0.65449842  0.28226042     0.08800
Cu1064     Cu  0.51707052  0.66034770  0.32979493     0.44170
Cu1065     Cu  0.51190576  0.67796086  0.30189988     0.41990
Cu1066     Cu  0.49171868  0.68126599  0.33031470     0.43880
N1067       N  0.50356341  0.65955831  0.34348328    -0.34820
N1068       N  0.49334044  0.66662185  0.34325611    -0.29070
C1069       C  0.48460109  0.66133816  0.35080289    -0.05180
C1070       C  0.48967485  0.65041277  0.35592706     0.07040
C1071       C  0.50168417  0.64964478  0.35104503     0.00840
H1072       H  0.47487435  0.66435591  0.35132993     0.08490
H1073       H  0.50790818  0.64158780  0.35155398     0.07570
N1074       N  0.49524403  0.69562486  0.31740471    -0.36270
N1075       N  0.50283881  0.69481660  0.30752979    -0.28450
C1076       C  0.50397901  0.70643048  0.30240577    -0.03690
C1077       C  0.49655800  0.71481367  0.30919992     0.04920
C1078       C  0.49126442  0.70759071  0.31864606     0.03010
H1079       H  0.50993502  0.70867251  0.29445754     0.08120
H1080       H  0.48543207  0.71093261  0.32629678     0.06950
N1081       N  0.40259499  0.57966806  0.37870169    -0.27430
N1082       N  0.40895124  0.58630438  0.37033560    -0.35290
C1083       C  0.40102397  0.59333964  0.36351027     0.00910
C1084       C  0.38898770  0.59106290  0.36767415     0.06930
C1085       C  0.39020306  0.58216403  0.37719945    -0.06170
H1086       H  0.40385506  0.59965264  0.35603058     0.07600
H1087       H  0.38270723  0.57798405  0.38268742     0.08800
Cu1088     Cu  0.42807014  0.58702868  0.36917608     0.44170
Cu1089     Cu  0.41204793  0.56832707  0.39168700     0.41990
Cu1090     Cu  0.44603236  0.57769265  0.39500002     0.43880
N1091       N  0.44528971  0.59463708  0.37284823    -0.34820
N1092       N  0.45189516  0.59204979  0.38307997    -0.29070
C1093       C  0.46179330  0.60002383  0.38368336    -0.05180
C1094       C  0.46123059  0.60781349  0.37319924     0.07040
C1095       C  0.45065504  0.60416528  0.36660924     0.00840
H1096       H  0.46878450  0.60016490  0.39113222     0.08490
H1097       H  0.44685191  0.60844495  0.35815634     0.07570
N1098       N  0.43777960  0.56168595  0.40272542    -0.36270
N1099       N  0.42574692  0.55837916  0.40174976    -0.28450
C1100       C  0.42410915  0.54720780  0.40754615    -0.03690
C1101       C  0.43564132  0.54330424  0.41219823     0.04920
C1102       C  0.44406453  0.55266258  0.40902059     0.03010
H1103       H  0.41525261  0.54217066  0.40806032     0.08120
H1104       H  0.45407379  0.55284320  0.41101399     0.06950
N1105       N  0.63225880  0.65553266  0.15131449    -0.27430
N1106       N  0.63429672  0.64365312  0.15439851    -0.35290
C1107       C  0.62796668  0.63611983  0.14650043     0.00910
C1108       C  0.62165265  0.64353056  0.13791790     0.06930
C1109       C  0.62459079  0.65585111  0.14114378    -0.06170
H1110       H  0.62739132  0.62598435  0.14742175     0.07600
H1111       H  0.62085527  0.66434997  0.13693301     0.08800
Cu1112     Cu  0.64228549  0.63771606  0.17092843     0.44170
Cu1113     Cu  0.63882342  0.67015940  0.16253949     0.41990
Cu1114     Cu  0.64348620  0.65953627  0.19551151     0.43880
N1115       N  0.63976746  0.63251970  0.18930895    -0.34820
N1116       N  0.63940837  0.64070586  0.19865467    -0.29070
C1117       C  0.63475382  0.63494248  0.20895229    -0.05180
C1118       C  0.63204075  0.62253885  0.20578888     0.07040
C1119       C  0.63530150  0.62140324  0.19325882     0.00840
H1120       H  0.63255588  0.63966823  0.21771127     0.08490
H1121       H  0.63357764  0.61339471  0.18717724     0.07570
N1122       N  0.64918591  0.67680233  0.18835397    -0.36270
N1123       N  0.64745524  0.68072788  0.17662158    -0.28450
C1124       C  0.65323226  0.69192624  0.17517265    -0.03690
C1125       C  0.65885191  0.69515727  0.18651254     0.04920
C1126       C  0.65615988  0.68533772  0.19460243     0.03010
H1127       H  0.65385348  0.69699242  0.16634658     0.08120
H1128       H  0.65937144  0.68428149  0.20423654     0.06950
N1129       N  0.55291259  0.57504163  0.26968386    -0.27430
N1130       N  0.56366527  0.58122098  0.27083890    -0.35290
C1131       C  0.56154410  0.59280286  0.27529912     0.00910
C1132       C  0.54877820  0.59433588  0.27719222     0.06930
C1133       C  0.54351324  0.58276818  0.27359711    -0.06170
H1134       H  0.56880870  0.59987443  0.27647842     0.07600
H1135       H  0.53365368  0.58018414  0.27376074     0.08800
Cu1136     Cu  0.58057211  0.57559833  0.26360629     0.44170
Cu1137     Cu  0.55283245  0.55669845  0.26175560     0.41990
Cu1138     Cu  0.57905623  0.55382411  0.23895347     0.43880
N1139       N  0.59218867  0.57679314  0.24833958    -0.34820
N1140       N  0.59119817  0.56918739  0.23855391    -0.29070
C1141       C  0.59808036  0.57393178  0.22902265    -0.05180
C1142       C  0.60340374  0.58521652  0.23303891     0.07040
C1143       C  0.59956014  0.58660598  0.24537474     0.00840
H1144       H  0.59878272  0.56969709  0.21977955     0.08490
H1145       H  0.60115655  0.59466956  0.25142089     0.07570
N1146       N  0.56722403  0.53906707  0.24409214    -0.36270
N1147       N  0.55808607  0.53972758  0.25256650    -0.28450
C1148       C  0.55345658  0.52797628  0.25434674    -0.03690
C1149       C  0.55995521  0.51961730  0.24660020     0.04920
C1150       C  0.56849691  0.52707021  0.24021137     0.03010
H1151       H  0.54599589  0.52565911  0.26087406     0.08120
H1152       H  0.57553878  0.52389676  0.23357347     0.06950
N1153       N  0.10768459  0.39900525  0.40832291    -0.27430
N1154       N  0.11163065  0.40493946  0.39817178    -0.35290
C1155       C  0.11827855  0.39722636  0.39090824     0.00910
C1156       C  0.11859164  0.38558729  0.39650985     0.06930
C1157       C  0.11177382  0.38693345  0.40766697    -0.06170
H1158       H  0.12220263  0.39984105  0.38187425     0.07600
H1159       H  0.10952959  0.37964991  0.41442829     0.08800
Cu1160     Cu  0.10735181  0.42274392  0.39330962     0.44170
Cu1161     Cu  0.09672948  0.40913877  0.42119984     0.41990
Cu1162     Cu  0.09444961  0.44460371  0.41186645     0.43880
N1163       N  0.10548477  0.44053257  0.38701252    -0.34820
N1164       N  0.10065872  0.44953099  0.39397807    -0.29070
C1165       C  0.10138386  0.46044427  0.38749837    -0.05180
C1166       C  0.10719319  0.45797223  0.37595741     0.07040
C1167       C  0.10953270  0.44519725  0.37608384     0.00840
H1168       H  0.09800111  0.46938347  0.39097973     0.08490
H1169       H  0.11438348  0.43972730  0.36899401     0.07570
N1170       N  0.08743965  0.43581786  0.42793444    -0.36270
N1171       N  0.08745713  0.42366854  0.43090478    -0.28450
C1172       C  0.08068540  0.42213999  0.44152293    -0.03690
C1173       C  0.07617950  0.43378906  0.44539376     0.04920
C1174       C  0.08096943  0.44219571  0.43669137     0.03010
H1175       H  0.07909595  0.41314841  0.44604437     0.08120
H1176       H  0.08006467  0.45232032  0.43668528     0.06950
N1177       N  0.18724240  0.52030901  0.32562916    -0.27430
N1178       N  0.17727095  0.52100499  0.33302183    -0.35290
C1179       C  0.18068631  0.52518945  0.34444208     0.00910
C1180       C  0.19352249  0.52737822  0.34459965     0.06930
C1181       C  0.19738637  0.52430983  0.33234599    -0.06170
H1182       H  0.17430171  0.52584983  0.35234431     0.07600
H1183       H  0.20682753  0.52477321  0.32858836     0.08800
Cu1184     Cu  0.15971191  0.51399056  0.32896513     0.44170
Cu1185     Cu  0.18579909  0.51242572  0.30726906     0.41990
Cu1186     Cu  0.15857795  0.49042674  0.30639402     0.43880
N1187       N  0.14601189  0.50039416  0.32923475    -0.34820
N1188       N  0.14621160  0.49071723  0.32150255    -0.29070
C1189       C  0.13819203  0.48190387  0.32578113    -0.05180
C1190       C  0.13242883  0.48630533  0.33676766     0.07040
C1191       C  0.13777544  0.49817313  0.33849449     0.00840
H1192       H  0.13756186  0.47261904  0.32154630     0.08490
H1193       H  0.13653715  0.50454055  0.34636182     0.07570
N1194       N  0.16994563  0.49464191  0.29105317    -0.36270
N1195       N  0.17951939  0.50267664  0.29089716    -0.28450
C1196       C  0.18362261  0.50366412  0.27884158    -0.03690
C1197       C  0.17613949  0.49604713  0.27113248     0.04920
C1198       C  0.16777471  0.49037960  0.27932688     0.03010
H1199       H  0.19116445  0.50981607  0.27581947     0.08120
H1200       H  0.16037884  0.48377273  0.27691690     0.06950
N1201       N  0.22465554  0.54714423  0.41081161    -0.27430
N1202       N  0.23385535  0.55037525  0.40309522    -0.35290
C1203       C  0.23099160  0.54692851  0.39127201     0.00910
C1204       C  0.21928296  0.54132885  0.39124412     0.06930
C1205       C  0.21549445  0.54152696  0.40385915    -0.06170
H1206       H  0.23655636  0.54935151  0.38309218     0.07600
H1207       H  0.20661608  0.53821382  0.40760116     0.08800
Cu1208     Cu  0.24761534  0.56308977  0.40753898     0.44170
Cu1209     Cu  0.22569790  0.55212323  0.43015651     0.41990
Cu1210     Cu  0.24327375  0.58205966  0.43413727     0.43880
N1211       N  0.25183508  0.58188257  0.40765386    -0.34820
N1212       N  0.24986431  0.58938211  0.41736736    -0.29070
C1213       C  0.25204602  0.60138110  0.41381555    -0.05180
C1214       C  0.25511804  0.60125039  0.40113745     0.07040
C1215       C  0.25501557  0.58877030  0.39760347     0.00840
H1216       H  0.25110340  0.60953719  0.41985270     0.08490
H1217       H  0.25682857  0.58498166  0.38831115     0.07570
N1218       N  0.23838343  0.57014374  0.44876431    -0.36270
N1219       N  0.23209261  0.55939690  0.44770340    -0.28450
C1220       C  0.23175339  0.55388927  0.45921418    -0.03690
C1221       C  0.23819196  0.56152468  0.46778077     0.04920
C1222       C  0.24223859  0.57166609  0.46073817     0.03010
H1223       H  0.22766508  0.54474670  0.46108874     0.08120
H1224       H  0.24791818  0.57948763  0.46402515     0.06950
N1225       N  0.33390031  0.62395372  0.32998838    -0.27430
N1226       N  0.32680259  0.61579891  0.33611074    -0.35290
C1227       C  0.33410553  0.60781819  0.34259799     0.00910
C1228       C  0.34651676  0.61093447  0.34044382     0.06930
C1229       C  0.34609604  0.62132997  0.33248086    -0.06170
H1230       H  0.33058679  0.60099001  0.34928723     0.07600
H1231       H  0.35400832  0.62687136  0.32922232     0.08800
Cu1232     Cu  0.30787464  0.61783967  0.33859421     0.44170
Cu1233     Cu  0.32574229  0.63865218  0.31983573     0.41990
Cu1234     Cu  0.29293142  0.64610058  0.33022210     0.43880
N1235       N  0.29241260  0.62449913  0.34782993    -0.34820
N1236       N  0.28673325  0.63521887  0.34512364    -0.29070
C1237       C  0.27771642  0.63737868  0.35379568    -0.05180
C1238       C  0.27815158  0.62761528  0.36243269     0.07040
C1239       C  0.28747149  0.61962644  0.35832450     0.00840
H1240       H  0.27160501  0.64552428  0.35397811     0.08490
H1241       H  0.29061567  0.61101044  0.36278400     0.07570
N1242       N  0.30161474  0.65319182  0.31427612    -0.36270
N1243       N  0.31320102  0.65056537  0.31045936    -0.28450
C1244       C  0.31501658  0.65592344  0.29910757    -0.03690
C1245       C  0.30413954  0.66231028  0.29571581     0.04920
C1246       C  0.29584039  0.66026695  0.30550817     0.03010
H1247       H  0.32348045  0.65488674  0.29353946     0.08120
H1248       H  0.28604975  0.66307321  0.30592892     0.06950
N1249       N  0.05330144  0.07524763  0.77146180    -0.27430
N1250       N  0.06416755  0.08126332  0.77238803    -0.35290
C1251       C  0.06224369  0.09308139  0.77636358     0.00910
C1252       C  0.04952834  0.09481439  0.77848831     0.06930
C1253       C  0.04408444  0.08325746  0.77514261    -0.06170
H1254       H  0.06953307  0.10019701  0.77651499     0.07600
H1255       H  0.03412864  0.08105540  0.77486276     0.08800
Cu1256     Cu  0.08086613  0.07509662  0.76504091     0.44170
Cu1257     Cu  0.05243477  0.05706294  0.76324452     0.41990
Cu1258     Cu  0.07692566  0.05549951  0.73888646     0.43880
N1259       N  0.09249764  0.07612913  0.74976456    -0.34820
N1260       N  0.09032716  0.06972619  0.73931994    -0.29070
C1261       C  0.09722378  0.07476797  0.72995885    -0.05180
C1262       C  0.10411537  0.08474365  0.73490195     0.07040
C1263       C  0.10079908  0.08535297  0.74744642     0.00840
H1264       H  0.09670577  0.07188730  0.72018302     0.08490
H1265       H  0.10315593  0.09277807  0.75403935     0.07570
N1266       N  0.06564806  0.04038495  0.74405119    -0.36270
N1267       N  0.05702883  0.04049749  0.75306250    -0.28450
C1268       C  0.05298212  0.02851995  0.75484288    -0.03690
C1269       C  0.05951800  0.02057755  0.74669540     0.04920
C1270       C  0.06727641  0.02853646  0.73992803     0.03010
H1271       H  0.04628032  0.02569580  0.76196953     0.08120
H1272       H  0.07405414  0.02584945  0.73282259     0.06950
N1273       N  0.12997020  0.15548466  0.65350370    -0.27430
N1274       N  0.13292771  0.14399475  0.65720861    -0.35290
C1275       C  0.12804421  0.13558251  0.64921841     0.00910
C1276       C  0.12192344  0.14197000  0.63972285     0.06930
C1277       C  0.12314293  0.15464629  0.64276092    -0.06170
H1278       H  0.12847017  0.12549193  0.65056939     0.07600
H1279       H  0.11931005  0.16258562  0.63763754     0.08800
Cu1280     Cu  0.14101601  0.13947684  0.67404563     0.44170
Cu1281     Cu  0.13539717  0.17091577  0.66429129     0.41990
Cu1282     Cu  0.14028971  0.16159049  0.69794560     0.43880
N1283       N  0.13768520  0.13445743  0.69224831    -0.34820
N1284       N  0.13652973  0.14275767  0.70142267    -0.29070
C1285       C  0.13155059  0.13695832  0.71155368    -0.05180
C1286       C  0.12936593  0.12449075  0.70832422     0.07040
C1287       C  0.13339023  0.12324468  0.69607602     0.00840
H1288       H  0.12891917  0.14161801  0.72022569     0.08490
H1289       H  0.13234222  0.11506824  0.69006636     0.07570
N1290       N  0.14663875  0.17814770  0.68971507    -0.36270
N1291       N  0.14479799  0.18160393  0.67784079    -0.28450
C1292       C  0.15120001  0.19233992  0.67569832    -0.03690
C1293       C  0.15752154  0.19562528  0.68663633     0.04920
C1294       C  0.15430854  0.18652501  0.69534649     0.03010
H1295       H  0.15166779  0.19709352  0.66668978     0.08120
H1296       H  0.15750407  0.18587974  0.70502183     0.06950
N1297       N  0.01698004  0.15950073  0.79915730    -0.27430
N1298       N  0.01181314  0.15059398  0.80611597    -0.35290
C1299       C  0.01556261  0.13921845  0.80224357     0.00910
C1300       C  0.02364876  0.14075412  0.79230174     0.06930
C1301       C  0.02455228  0.15378539  0.79059772    -0.06170
H1302       H  0.01311160  0.13045239  0.80683002     0.07600
H1303       H  0.03041341  0.15867355  0.78385672     0.08800
Cu1304     Cu  0.00152720  0.15380078  0.82183985     0.44170
Cu1305     Cu  0.01247333  0.17863732  0.80303671     0.41990
Cu1306     Cu  0.99105239  0.18273334  0.83187704     0.43880
N1307       N  0.99275903  0.15587901  0.83864984    -0.34820
N1308       N  0.98815028  0.16664869  0.84270248    -0.29070
C1309       C  0.98192542  0.16450192  0.85358699    -0.05180
C1310       C  0.98295610  0.15172681  0.85637414     0.07040
C1311       C  0.98991170  0.14666297  0.84669919     0.00840
H1312       H  0.97680840  0.17156542  0.85883972     0.08490
H1313       H  0.99211060  0.13682132  0.84520804     0.07570
N1314       N  0.99628937  0.19675910  0.81914313    -0.36270
N1315       N  0.00400937  0.19570919  0.80935329    -0.28450
C1316       C  0.00514238  0.20721712  0.80396989    -0.03690
C1317       C  0.99761501  0.21573712  0.81047449     0.04920
C1318       C  0.99229265  0.20874309  0.82004971     0.03010
H1319       H  0.01092230  0.20923244  0.79583457     0.08120
H1320       H  0.98612470  0.21218804  0.82738524     0.06950
N1321       N  0.90346249  0.07865531  0.87688574    -0.27430
N1322       N  0.91035372  0.08485335  0.86860820    -0.35290
C1323       C  0.90291691  0.09215696  0.86148639     0.00910
C1324       C  0.89068106  0.09052106  0.86542228     0.06930
C1325       C  0.89126152  0.08172703  0.87508012    -0.06170
H1326       H  0.90624128  0.09839911  0.85415411     0.07600
H1327       H  0.88347882  0.07814952  0.88059512     0.08800
Cu1328     Cu  0.92956430  0.08544398  0.86885605     0.44170
Cu1329     Cu  0.91185890  0.06751175  0.89064681     0.41990
Cu1330     Cu  0.94438849  0.07843911  0.89773413     0.43880
N1331       N  0.94512609  0.09486679  0.87511762    -0.34820
N1332       N  0.95042823  0.09299394  0.88622988    -0.29070
C1333       C  0.95868396  0.10240269  0.88849326    -0.05180
C1334       C  0.95830119  0.11057395  0.87829234     0.07040
C1335       C  0.94963114  0.10546925  0.87004509     0.00840
H1336       H  0.96398679  0.10356480  0.89714371     0.08490
H1337       H  0.94630291  0.10953755  0.86129092     0.07570
N1338       N  0.93606884  0.06236996  0.90510326    -0.36270
N1339       N  0.92456002  0.05826288  0.90241484    -0.28450
C1340       C  0.92284097  0.04699347  0.90796944    -0.03690
C1341       C  0.93373454  0.04398653  0.91446492     0.04920
C1342       C  0.94189447  0.05388991  0.91248892     0.03010
H1343       H  0.91441117  0.04130600  0.90710652     0.08120
H1344       H  0.95152972  0.05466561  0.91578425     0.06950
N1345       N  0.07606672  0.21417744  0.43489971    -0.27430
N1346       N  0.08281368  0.21326676  0.42450396    -0.35290
C1347       C  0.09434321  0.20886168  0.42722843     0.00910
C1348       C  0.09511882  0.20656056  0.44001319     0.06930
C1349       C  0.08331716  0.21017201  0.44463708    -0.06170
H1350       H  0.10198073  0.20858470  0.42051035     0.07600
H1351       H  0.08047784  0.21046752  0.45441675     0.08800
Cu1352     Cu  0.07800119  0.22135252  0.40768647     0.44170
Cu1353     Cu  0.05799977  0.22270628  0.43450843     0.41990
Cu1354     Cu  0.05544387  0.24559689  0.40822803     0.43880
N1355       N  0.07874830  0.23636165  0.39566823    -0.34820
N1356       N  0.07081409  0.24591582  0.39611798    -0.29070
C1357       C  0.07538485  0.25533598  0.38893652    -0.05180
C1358       C  0.08677591  0.25140741  0.38387211     0.07040
C1359       C  0.08859463  0.23938376  0.38840332     0.00840
H1360       H  0.07125513  0.26462659  0.38825014     0.08490
H1361       H  0.09693350  0.23362623  0.38730967     0.07570
N1362       N  0.04081015  0.24116319  0.42048536    -0.36270
N1363       N  0.04136246  0.23273077  0.42968689    -0.28450
C1364       C  0.02971991  0.23164399  0.43476275    -0.03690
C1365       C  0.02157867  0.23994137  0.42863852     0.04920
C1366       C  0.02899110  0.24567889  0.41959854     0.03010
H1367       H  0.02729113  0.22517190  0.44224616     0.08120
H1368       H  0.02588278  0.25226290  0.41245480     0.06950
N1369       N  0.15566855  0.33370999  0.35818848    -0.27430
N1370       N  0.14411823  0.33033404  0.35492925    -0.35290
C1371       C  0.13577239  0.33782143  0.36062379     0.00910
C1372       C  0.14229688  0.34646897  0.36776841     0.06930
C1373       C  0.15494445  0.34362079  0.36612744    -0.06170
H1374       H  0.12564683  0.33671835  0.35999705     0.07600
H1375       H  0.16294958  0.34832392  0.37038980     0.08800
Cu1376     Cu  0.13948494  0.31406845  0.34573616     0.44170
Cu1377     Cu  0.17118814  0.32369677  0.35178883     0.41990
Cu1378     Cu  0.16238075  0.29044714  0.34725504     0.43880
N1379       N  0.13495010  0.29572828  0.34931638    -0.34820
N1380       N  0.14352789  0.28687456  0.35087341    -0.29070
C1381       C  0.13801391  0.27673891  0.35612280    -0.05180
C1382       C  0.12539851  0.27956281  0.35814632     0.07040
C1383       C  0.12380363  0.29161391  0.35356902     0.00840
H1384       H  0.14293505  0.26820657  0.35872681     0.08490
H1385       H  0.11543322  0.29738184  0.35431928     0.07570
N1386       N  0.17917575  0.29843819  0.34126843    -0.36270
N1387       N  0.18233085  0.31043786  0.34267709    -0.28450
C1388       C  0.19325064  0.31256599  0.33659517    -0.03690
C1389       C  0.19709638  0.30137145  0.33121797     0.04920
C1390       C  0.18801450  0.29263121  0.33434116     0.03010
H1391       H  0.19788616  0.32162232  0.33592479     0.08120
H1392       H  0.18765197  0.28285791  0.33146959     0.06950
N1393       N  0.08216408  0.10564053  0.58722672    -0.27430
N1394       N  0.09367861  0.10475860  0.58267912    -0.35290
C1395       C  0.10172271  0.11085826  0.59018542     0.00910
C1396       C  0.09513660  0.11580996  0.60021136     0.06930
C1397       C  0.08265121  0.11226494  0.59810462    -0.06170
H1398       H  0.11169028  0.11181905  0.58827870     0.07600
H1399       H  0.07459383  0.11418819  0.60401603     0.08800
Cu1400     Cu  0.09845953  0.09696530  0.56582623     0.44170
Cu1401     Cu  0.06717354  0.09803117  0.57711302     0.41990
Cu1402     Cu  0.07598194  0.09364583  0.54269416     0.43880
N1403       N  0.10313906  0.09772768  0.54725325    -0.34820
N1404       N  0.09467343  0.09713853  0.53817071    -0.29070
C1405       C  0.10013158  0.10070055  0.52728094    -0.05180
C1406       C  0.11260128  0.10401514  0.52984254     0.07040
C1407       C  0.11410017  0.10181228  0.54260111     0.00840
H1408       H  0.09517753  0.10139651  0.51839564     0.08490
H1409       H  0.12217375  0.10428954  0.54836014     0.07570
N1410       N  0.05915966  0.08835663  0.55116839    -0.36270
N1411       N  0.05617127  0.08943308  0.56326454    -0.28450
C1412       C  0.04502705  0.08368312  0.56521210    -0.03690
C1413       C  0.04085242  0.07890404  0.55383375     0.04920
C1414       C  0.04993510  0.08208164  0.54515758     0.03010
H1415       H  0.04040389  0.08291141  0.57425697     0.08120
H1416       H  0.05007265  0.07959253  0.53526669     0.06950
N1417       N  0.16027736  0.18914676  0.47381727    -0.27430
N1418       N  0.15236416  0.18678035  0.48311534    -0.35290
C1419       C  0.14074531  0.19063834  0.47995525     0.00910
C1420       C  0.14111612  0.19578563  0.46803957     0.06930
C1421       C  0.15366845  0.19455778  0.46430296    -0.06170
H1422       H  0.13240034  0.18878623  0.48549413     0.07600
H1423       H  0.15755886  0.19699480  0.45520830     0.08800
Cu1424     Cu  0.15624343  0.17490833  0.49783953     0.44170
Cu1425     Cu  0.17938881  0.18356865  0.47525642     0.41990
Cu1426     Cu  0.18271731  0.15521595  0.49504926     0.43880
N1427       N  0.15634218  0.15670173  0.50423745    -0.34820
N1428       N  0.16577563  0.14883402  0.50241168    -0.29070
C1429       C  0.16193723  0.13709649  0.50538389    -0.05180
C1430       C  0.14944425  0.13772873  0.50926640     0.07040
C1431       C  0.14628635  0.15032170  0.50837244     0.00840
H1432       H  0.16760495  0.12872690  0.50417031     0.08490
H1433       H  0.13713768  0.15449794  0.51002433     0.07570
N1434       N  0.19773594  0.16643588  0.48938326    -0.36270
N1435       N  0.19680139  0.17659635  0.48218371    -0.28450
C1436       C  0.20838847  0.18184575  0.48119867    -0.03690
C1437       C  0.21688538  0.17480987  0.48832101     0.04920
C1438       C  0.20976305  0.16506787  0.49321860     0.03010
H1439       H  0.21041912  0.19039776  0.47605080     0.08120
H1440       H  0.21305812  0.15755237  0.49927517     0.06950
N1441       N  0.66135179  0.68549017  0.96787706    -0.27430
N1442       N  0.65490291  0.67492381  0.96652783    -0.35290
C1443       C  0.64322027  0.67748948  0.96244101     0.00910
C1444       C  0.64200066  0.69034765  0.96103480     0.06930
C1445       C  0.65375194  0.69518922  0.96455544    -0.06170
H1446       H  0.63588567  0.67048987  0.96126884     0.07600
H1447       H  0.65633086  0.70501292  0.96536791     0.08800
Cu1448     Cu  0.66030284  0.65787647  0.97374980     0.44170
Cu1449     Cu  0.67965549  0.68525951  0.97576740     0.41990
Cu1450     Cu  0.68237966  0.65947334  0.99871452     0.43880
N1451       N  0.65950845  0.64613348  0.98903098    -0.34820
N1452       N  0.66707039  0.64722491  0.99889359    -0.29070
C1453       C  0.66241003  0.64021014  0.00838673    -0.05180
C1454       C  0.65143245  0.63451131  0.00414159     0.07040
C1455       C  0.64985564  0.63850487  0.99189864     0.00840
H1456       H  0.66629266  0.63986433  0.01782635     0.08490
H1457       H  0.64176081  0.63684373  0.98588309     0.07570
N1458       N  0.69729554  0.67110121  0.99353073    -0.36270
N1459       N  0.69662132  0.68011001  0.98491030    -0.28450
C1460       C  0.70837061  0.68464379  0.98294778    -0.03690
C1461       C  0.71676357  0.67822304  0.99073991     0.04920
C1462       C  0.70934212  0.66981359  0.99734875     0.03010
H1463       H  0.71066703  0.69195558  0.97623681     0.08120
H1464       H  0.71256660  0.66283647  0.00405605     0.06950
N1465       N  0.58350673  0.60380344  0.08799946    -0.27430
N1466       N  0.59530897  0.60314564  0.08413685    -0.35290
C1467       C  0.60263204  0.61005809  0.09176515     0.00910
C1468       C  0.59513815  0.61529140  0.10096376     0.06930
C1469       C  0.58301921  0.61112153  0.09836799    -0.06170
H1470       H  0.61258144  0.61173905  0.09028644     0.07600
H1471       H  0.57443694  0.61382379  0.10313769     0.08800
Cu1472     Cu  0.60077482  0.59613792  0.06700590     0.44170
Cu1473     Cu  0.56890664  0.59631644  0.07742786     0.41990
Cu1474     Cu  0.57687836  0.59720300  0.04369713     0.43880
N1475       N  0.60456101  0.59941517  0.04837128    -0.34820
N1476       N  0.59565585  0.60105942  0.03979402    -0.29070
C1477       C  0.60090437  0.60599372  0.02935501    -0.05180
C1478       C  0.61371823  0.60729759  0.03155587     0.07040
C1479       C  0.61568502  0.60311885  0.04368766     0.00840
H1480       H  0.59573190  0.60892253  0.02105077     0.08490
H1481       H  0.62433959  0.60376607  0.04908216     0.07570
N1482       N  0.56039476  0.58964494  0.05103989    -0.36270
N1483       N  0.55775601  0.58887436  0.06321239    -0.28450
C1484       C  0.54706834  0.58222235  0.06468831    -0.03690
C1485       C  0.54279679  0.57871825  0.05289500     0.04920
C1486       C  0.55136222  0.58363184  0.04445754     0.03010
H1487       H  0.54280597  0.58001113  0.07367342     0.08120
H1488       H  0.55128628  0.58252717  0.03431720     0.06950
N1489       N  0.57538576  0.71631519  0.93680104    -0.27430
N1490       N  0.58205979  0.71513251  0.92637199    -0.35290
C1491       C  0.59367670  0.71104128  0.92915758     0.00910
C1492       C  0.59461217  0.70940816  0.94200645     0.06930
C1493       C  0.58277653  0.71279991  0.94663772    -0.06170
H1494       H  0.60116130  0.70999688  0.92232886     0.07600
H1495       H  0.58001153  0.71335742  0.95642689     0.08800
Cu1496     Cu  0.57707958  0.72230910  0.90918949     0.44170
Cu1497     Cu  0.55711568  0.72431573  0.93623466     0.41990
Cu1498     Cu  0.55434174  0.74631758  0.90938327     0.43880
N1499       N  0.57788362  0.73726876  0.89709795    -0.34820
N1500       N  0.56985588  0.74673802  0.89749725    -0.29070
C1501       C  0.57430538  0.75615948  0.89026801    -0.05180
C1502       C  0.58583781  0.75243106  0.88534077     0.07040
C1503       C  0.58768279  0.74035263  0.88977884     0.00840
H1504       H  0.56968084  0.76515027  0.88905621     0.08490
H1505       H  0.59600983  0.73459624  0.88858554     0.07570
N1506       N  0.53968298  0.74198136  0.92160967    -0.36270
N1507       N  0.54031492  0.73380910  0.93103514    -0.28450
C1508       C  0.52866314  0.73265297  0.93606683    -0.03690
C1509       C  0.52044143  0.74065479  0.92967474     0.04920
C1510       C  0.52780395  0.74628685  0.92053673     0.03010
H1511       H  0.52629613  0.72636179  0.94372227     0.08120
H1512       H  0.52463531  0.75267407  0.91324063     0.06950
N1513       N  0.65712550  0.83373490  0.85782260    -0.27430
N1514       N  0.64549685  0.83063631  0.85455416    -0.35290
C1515       C  0.63745854  0.83925062  0.85889408     0.00910
C1516       C  0.64423318  0.84843492  0.86506642     0.06930
C1517       C  0.65673445  0.84462983  0.86439882    -0.06170
H1518       H  0.62730740  0.83853199  0.85812699     0.07600
H1519       H  0.66484998  0.84932091  0.86845900     0.08800
Cu1520     Cu  0.63989646  0.81387115  0.84693516     0.44170
Cu1521     Cu  0.67225774  0.82221370  0.85315438     0.41990
Cu1522     Cu  0.66106373  0.78948979  0.84735698     0.43880
N1523       N  0.63404716  0.79572808  0.84947846    -0.34820
N1524       N  0.64210006  0.78634176  0.85046747    -0.29070
C1525       C  0.63602319  0.77619126  0.85502455    -0.05180
C1526       C  0.62351449  0.77948499  0.85698518     0.07040
C1527       C  0.62266492  0.79196106  0.85341050     0.00840
H1528       H  0.64057791  0.76747726  0.85770536     0.08490
H1529       H  0.61464928  0.79814151  0.85459384     0.07570
N1530       N  0.67853003  0.79655652  0.84234090    -0.36270
N1531       N  0.68279059  0.80806376  0.84460044    -0.28450
C1532       C  0.69420550  0.80930653  0.83921815    -0.03690
C1533       C  0.69727290  0.79804730  0.83333104     0.04920
C1534       C  0.68698801  0.79030755  0.83537323     0.03010
H1535       H  0.69967942  0.81791168  0.83925407     0.08120
H1536       H  0.68535098  0.78103102  0.83150343     0.06950
N1537       N  0.43645295  0.07498543  0.21994118    -0.27430
N1538       N  0.42615742  0.08164845  0.21776918    -0.35290
C1539       C  0.42929748  0.09323557  0.21387026     0.00910
C1540       C  0.44227681  0.09422701  0.21350874     0.06930
C1541       C  0.44654532  0.08239373  0.21745313    -0.06170
H1542       H  0.42253332  0.10063491  0.21201503     0.07600
H1543       H  0.45620615  0.07958765  0.21907803     0.08800
Cu1544     Cu  0.40839173  0.07665145  0.22344096     0.44170
Cu1545     Cu  0.43539782  0.05650303  0.22740545     0.41990
Cu1546     Cu  0.40634915  0.05268358  0.24605482     0.43880
N1547       N  0.39479476  0.07659285  0.23712721    -0.34820
N1548       N  0.39412282  0.06789062  0.24595543    -0.29070
C1549       C  0.38628558  0.07189788  0.25506992    -0.05180
C1550       C  0.38218910  0.08395676  0.25198956     0.07040
C1551       C  0.38766101  0.08645191  0.24042828     0.00840
H1552       H  0.38437821  0.06666810  0.26358150     0.08490
H1553       H  0.38761338  0.09535104  0.23545880     0.07570
N1554       N  0.41941533  0.03850533  0.24296774    -0.36270
N1555       N  0.42964466  0.03937366  0.23590617    -0.28450
C1556       C  0.43484414  0.02775625  0.23501017    -0.03690
C1557       C  0.42761721  0.01924799  0.24198811     0.04920
C1558       C  0.41797871  0.02657105  0.24684686     0.03010
H1559       H  0.44290095  0.02560205  0.22918997     0.08120
H1560       H  0.41014620  0.02339442  0.25252539     0.06950
N1561       N  0.36233509  0.15891628  0.33554173    -0.27430
N1562       N  0.37197530  0.15432375  0.32916852    -0.35290
C1563       C  0.37978843  0.14833384  0.33710623     0.00910
C1564       C  0.37485232  0.14907685  0.34908520     0.06930
C1565       C  0.36369519  0.15575874  0.34777101    -0.06170
H1566       H  0.38762801  0.14253915  0.33415276     0.07600
H1567       H  0.35667969  0.15739327  0.35497116     0.08800
Cu1568     Cu  0.37196233  0.15200326  0.30993890     0.44170
Cu1569     Cu  0.34727341  0.16774716  0.32661854     0.41990
Cu1570     Cu  0.34322700  0.15764786  0.29383540     0.43880
N1571       N  0.36671746  0.14234946  0.29394209    -0.34820
N1572       N  0.35571825  0.14380766  0.28828134    -0.29070
C1573       C  0.35425840  0.13466438  0.27959512    -0.05180
C1574       C  0.36493253  0.12711713  0.27983273     0.07040
C1575       C  0.37257151  0.13229120  0.28908206     0.00840
H1576       H  0.34578954  0.13325358  0.27406554     0.08490
H1577       H  0.38149508  0.12866816  0.29246323     0.07570
N1578       N  0.33446589  0.17315602  0.30169828    -0.36270
N1579       N  0.33572936  0.17678616  0.31358315    -0.28450
C1580       C  0.32955655  0.18774647  0.31517838    -0.03690
C1581       C  0.32428709  0.19112156  0.30374226     0.04920
C1582       C  0.32756013  0.18171396  0.29542162     0.03010
H1583       H  0.32941603  0.19312664  0.32384217     0.08120
H1584       H  0.32545887  0.18133427  0.28543926     0.06950
N1585       N  0.58681110  0.07898700  0.10890378    -0.27430
N1586       N  0.58047906  0.08501922  0.11774026    -0.35290
C1587       C  0.58847060  0.09153244  0.12502518     0.00910
C1588       C  0.60049927  0.08940685  0.12075760     0.06930
C1589       C  0.59920411  0.08137823  0.11050429    -0.06170
H1590       H  0.58566795  0.09770503  0.13263399     0.07600
H1591       H  0.60661391  0.07792848  0.10443057     0.08800
Cu1592     Cu  0.56134583  0.08663511  0.11835785     0.44170
Cu1593     Cu  0.57755033  0.06877407  0.09493066     0.41990
Cu1594     Cu  0.54375757  0.07783446  0.09204959     0.43880
N1595       N  0.54550548  0.09612261  0.11303816    -0.34820
N1596       N  0.53904643  0.09346267  0.10273748    -0.29070
C1597       C  0.53054065  0.10268488  0.10074543    -0.05180
C1598       C  0.53208147  0.11167314  0.11015151     0.07040
C1599       C  0.54148336  0.10703292  0.11786946     0.00840
H1600       H  0.52402323  0.10301696  0.09288542     0.08490
H1601       H  0.54533183  0.11135105  0.12628287     0.07570
N1602       N  0.55186389  0.06183197  0.08431542    -0.36270
N1603       N  0.56396338  0.05883225  0.08480330    -0.28450
C1604       C  0.56567279  0.04783201  0.07873957    -0.03690
C1605       C  0.55404874  0.04349086  0.07451517     0.04920
C1606       C  0.54558271  0.05272330  0.07816907     0.03010
H1607       H  0.57477928  0.04348262  0.07748020     0.08120
H1608       H  0.53548964  0.05275565  0.07667668     0.06950
N1609       N  0.47124759  0.15928929  0.18838253    -0.27430
N1610       N  0.47174060  0.15146742  0.17872205    -0.35290
C1611       C  0.46787620  0.13999061  0.18217020     0.00910
C1612       C  0.46457277  0.14028726  0.19469680     0.06930
C1613       C  0.46678651  0.15275765  0.19843232    -0.06170
H1614       H  0.46766695  0.13189962  0.17596355     0.07600
H1615       H  0.46562768  0.15663905  0.20778672     0.08800
Cu1616     Cu  0.47892488  0.15568258  0.16147843     0.44170
Cu1617     Cu  0.47782515  0.17807367  0.18606298     0.41990
Cu1618     Cu  0.49726099  0.18200917  0.15617150     0.43880
N1619       N  0.49028372  0.15694220  0.14612407    -0.34820
N1620       N  0.49781957  0.16657051  0.14403524    -0.29070
C1621       C  0.50552735  0.16358924  0.13438633    -0.05180
C1622       C  0.50251171  0.15147645  0.13024804     0.07040
C1623       C  0.49291629  0.14760147  0.13810978     0.00840
H1624       H  0.51321271  0.16944802  0.13115098     0.08490
H1625       H  0.48898699  0.13823216  0.13887564     0.07570
N1626       N  0.49310447  0.19616980  0.16918628    -0.36270
N1627       N  0.48600434  0.19516048  0.17943242    -0.28450
C1628       C  0.48497581  0.20674356  0.18468599    -0.03690
C1629       C  0.49193481  0.21529814  0.17759851     0.04920
C1630       C  0.49682006  0.20821507  0.16784259     0.03010
H1631       H  0.47956858  0.20881101  0.19306154     0.08120
H1632       H  0.50239281  0.21165669  0.16004181     0.06950
N1633       N  0.40340869  0.10314293  0.40033165    -0.27430
N1634       N  0.39170392  0.10235713  0.40443234    -0.35290
C1635       C  0.38402203  0.10867538  0.39666100     0.00910
C1636       C  0.39106166  0.11350074  0.38686628     0.06930
C1637       C  0.40339868  0.10985451  0.38954807    -0.06170
H1638       H  0.37425917  0.11062924  0.39877450     0.07600
H1639       H  0.41181084  0.11248732  0.38444749     0.08800
Cu1640     Cu  0.38661193  0.09603110  0.42185650     0.44170
Cu1641     Cu  0.41854825  0.09672023  0.41114355     0.41990
Cu1642     Cu  0.40975132  0.09453324  0.44504012     0.43880
N1643       N  0.38272476  0.09956415  0.44034171    -0.34820
N1644       N  0.39146449  0.09981506  0.44921124    -0.29070
C1645       C  0.38650776  0.10492697  0.45971638    -0.05180
C1646       C  0.37413334  0.10821826  0.45705950     0.07040
C1647       C  0.37204001  0.10454581  0.44477215     0.00840
H1648       H  0.39170079  0.10681006  0.46831439     0.08490
H1649       H  0.36362594  0.10610302  0.43919463     0.07570
N1650       N  0.42624995  0.08771251  0.43718793    -0.36270
N1651       N  0.42971197  0.08872206  0.42525691    -0.28450
C1652       C  0.44089225  0.08288948  0.42378612    -0.03690
C1653       C  0.44448532  0.07766936  0.43526882     0.04920
C1654       C  0.43495532  0.08106271  0.44349257     0.03010
H1655       H  0.44596288  0.08260578  0.41498088     0.08120
H1656       H  0.43418463  0.07861934  0.45335732     0.06950
N1657       N  0.32567041  0.18583384  0.52017821    -0.27430
N1658       N  0.33175650  0.17514780  0.52213753    -0.35290
C1659       C  0.34309630  0.17748831  0.52719403     0.00910
C1660       C  0.34445397  0.19029102  0.52873288     0.06930
C1661       C  0.33324394  0.19540757  0.52405929    -0.06170
H1662       H  0.35011534  0.17034589  0.52912286     0.07600
H1663       H  0.33084318  0.20529035  0.52347645     0.08800
Cu1664     Cu  0.32640701  0.15785548  0.51547046     0.44170
Cu1665     Cu  0.30757030  0.18566890  0.51158540     0.41990
Cu1666     Cu  0.30562522  0.15872095  0.48990368     0.43880
N1667       N  0.32754740  0.14514838  0.50102556    -0.34820
N1668       N  0.32038957  0.14599813  0.49087080    -0.29070
C1669       C  0.32532442  0.13871104  0.48177125    -0.05180
C1670       C  0.33610173  0.13299698  0.48652257     0.07040
C1671       C  0.33723076  0.13736944  0.49873503     0.00840
H1672       H  0.32186568  0.13831085  0.47216938     0.08490
H1673       H  0.34523373  0.13616277  0.50497181     0.07570
N1674       N  0.29072027  0.17076750  0.49360992    -0.36270
N1675       N  0.29092820  0.18017786  0.50182029    -0.28450
C1676       C  0.27906354  0.18478357  0.50280694    -0.03690
C1677       C  0.27119449  0.17812262  0.49462466     0.04920
C1678       C  0.27895979  0.16930030  0.48907974     0.03010
H1679       H  0.27631055  0.19228938  0.50912093     0.08120
H1680       H  0.27613039  0.16189593  0.48264818     0.06950
N1681       N  0.32969707  0.33482586  0.62731258    -0.27430
N1682       N  0.33373637  0.32879977  0.61720258    -0.35290
C1683       C  0.34038517  0.33666412  0.60996526     0.00910
C1684       C  0.34075851  0.34822896  0.61578510     0.06930
C1685       C  0.33379376  0.34685583  0.62675084    -0.06170
H1686       H  0.34581049  0.33377798  0.60184306     0.07600
H1687       H  0.33274848  0.35370645  0.63423026     0.08800
Cu1688     Cu  0.33493355  0.30966995  0.61570309     0.44170
Cu1689     Cu  0.32056532  0.32523544  0.64181614     0.41990
Cu1690     Cu  0.32733915  0.29077813  0.64121456     0.43880
N1691       N  0.34436373  0.29327238  0.61939801    -0.34820
N1692       N  0.34178582  0.28602150  0.62912029    -0.29070
C1693       C  0.35051522  0.27684493  0.62985751    -0.05180
C1694       C  0.35922617  0.27870674  0.62025847     0.07040
C1695       C  0.35488728  0.28918546  0.61381299     0.00840
H1696       H  0.35047294  0.26949721  0.63689614     0.08490
H1697       H  0.35935839  0.29388276  0.60595876     0.07570
N1698       N  0.31291040  0.29928957  0.65113239    -0.36270
N1699       N  0.31069922  0.31153237  0.65188378    -0.28450
C1700       C  0.30041239  0.31335840  0.65906783    -0.03690
C1701       C  0.29573602  0.30169460  0.66274575     0.04920
C1702       C  0.30403171  0.29307031  0.65758767     0.03010
H1703       H  0.29673043  0.32254644  0.66138592     0.08120
H1704       H  0.30351193  0.28291357  0.65818902     0.06950
N1705       N  0.41120952  0.21781217  0.55208242    -0.27430
N1706       N  0.40540062  0.21612549  0.56295214    -0.35290
C1707       C  0.39372253  0.21179230  0.56092193     0.00910
C1708       C  0.39174402  0.21049261  0.54811523     0.06930
C1709       C  0.40315352  0.21434247  0.54272515    -0.06170
H1710       H  0.38693284  0.21016521  0.56833582     0.07600
H1711       H  0.40545246  0.21457513  0.53280739     0.08800
Cu1712     Cu  0.41179356  0.22185578  0.58030610     0.44170
Cu1713     Cu  0.42960862  0.22566903  0.55164340     0.41990
Cu1714     Cu  0.43345806  0.24607218  0.57963174     0.43880
N1715       N  0.41173055  0.23569041  0.59376798    -0.34820
N1716       N  0.41919967  0.24558249  0.59291821    -0.29070
C1717       C  0.41436471  0.25498448  0.59990228    -0.05180
C1718       C  0.40332191  0.25070000  0.60541101     0.07040
C1719       C  0.40198807  0.23843556  0.60130627     0.00840
H1720       H  0.41768651  0.26461966  0.59965933     0.08490
H1721       H  0.39356487  0.23272394  0.60204157     0.07570
N1722       N  0.44765997  0.24217059  0.56682355    -0.36270
N1723       N  0.44673432  0.23469749  0.55685460    -0.28450
C1724       C  0.45837632  0.23348451  0.55176342    -0.03690
C1725       C  0.46693867  0.24055295  0.55887456     0.04920
C1726       C  0.45968785  0.24584317  0.56829771     0.03010
H1727       H  0.46055991  0.22737469  0.54390997     0.08120
H1728       H  0.46301597  0.25160431  0.57604504     0.06950
N1729       N  0.30332720  0.52058991  0.66210956    -0.27430
N1730       N  0.31379103  0.52178344  0.65546128    -0.35290
C1731       C  0.31105972  0.52597896  0.64385035     0.00910
C1732       C  0.29824561  0.52762170  0.64295290     0.06930
C1733       C  0.29354058  0.52422054  0.65472147    -0.06170
H1734       H  0.31784966  0.52692858  0.63631792     0.07600
H1735       H  0.28372974  0.52374298  0.65742922     0.08800
Cu1736     Cu  0.33085037  0.51422030  0.66023631     0.44170
Cu1737     Cu  0.30353615  0.51220738  0.68024778     0.41990
Cu1738     Cu  0.32843159  0.48839051  0.68065491     0.43880
N1739       N  0.34176585  0.49851579  0.65818240    -0.34820
N1740       N  0.34046474  0.48845391  0.66534497    -0.29070
C1741       C  0.34694901  0.47888741  0.66018293    -0.05180
C1742       C  0.35227235  0.48313704  0.64902858     0.07040
C1743       C  0.34890913  0.49566595  0.64818459     0.00840
H1744       H  0.34737273  0.46948418  0.66406800     0.08490
H1745       H  0.35067284  0.50197550  0.64037740     0.07570
N1746       N  0.31744154  0.49284968  0.69611314    -0.36270
N1747       N  0.30872115  0.50175802  0.69649335    -0.28450
C1748       C  0.30492197  0.50303690  0.70861592    -0.03690
C1749       C  0.31172103  0.49463930  0.71612140     0.04920
C1750       C  0.31932223  0.48823151  0.70773880     0.03010
H1751       H  0.29816879  0.50994789  0.71183195     0.08120
H1752       H  0.32612608  0.48097800  0.70996597     0.06950
N1753       N  0.38510792  0.39849797  0.58444640    -0.27430
N1754       N  0.38651889  0.40279669  0.59605354    -0.35290
C1755       C  0.38030893  0.39532315  0.60410777     0.00910
C1756       C  0.37471368  0.38584158  0.59725356     0.06930
C1757       C  0.37790231  0.38804964  0.58480240    -0.06170
H1758       H  0.37914248  0.39721802  0.61405905     0.07600
H1759       H  0.37465925  0.38289527  0.57660613     0.08800
Cu1760     Cu  0.39317062  0.42040826  0.60014514     0.44170
Cu1761     Cu  0.39159286  0.40858748  0.56900993     0.41990
Cu1762     Cu  0.39014917  0.44261034  0.57521504     0.43880
N1763       N  0.38901905  0.43897433  0.60308129    -0.34820
N1764       N  0.38709971  0.44721912  0.59395595    -0.29070
C1765       C  0.38188221  0.45765548  0.59892961    -0.05180
C1766       C  0.38041348  0.45569321  0.61175794     0.07040
C1767       C  0.38497087  0.44376571  0.61401158     0.00840
H1768       H  0.37851171  0.46560532  0.59350336     0.08490
H1769       H  0.38439535  0.43854062  0.62274707     0.07570
N1770       N  0.39694823  0.43459350  0.55875556    -0.36270
N1771       N  0.39814968  0.42236072  0.55675619    -0.28450
C1772       C  0.40482663  0.42057653  0.54614057    -0.03690
C1773       C  0.40777694  0.43225067  0.54103066     0.04920
C1774       C  0.40259380  0.44087053  0.54935922     0.03010
H1775       H  0.40793717  0.41144270  0.54292840     0.08120
H1776       H  0.40334850  0.45102238  0.54896738     0.06950
N1777       N  0.14974923  0.62985171  0.65562760    -0.27430
N1778       N  0.15497585  0.62648102  0.64488998    -0.35290
C1779       C  0.14666984  0.62026600  0.63774605     0.00910
C1780       C  0.13543318  0.61969834  0.64412145     0.06930
C1781       C  0.13769780  0.62569368  0.65560157    -0.06170
H1782       H  0.14886567  0.61601938  0.62874515     0.07600
H1783       H  0.13116878  0.62678250  0.66333891     0.08800
Cu1784     Cu  0.17319315  0.62958750  0.64026289     0.44170
Cu1785     Cu  0.16054815  0.63960601  0.66898013     0.41990
Cu1786     Cu  0.19452164  0.64615751  0.65804818     0.43880
N1787       N  0.19115789  0.63210132  0.63443217    -0.34820
N1788       N  0.19974258  0.63830376  0.64092984    -0.29070
C1789       C  0.21076016  0.63779116  0.63459784    -0.05180
C1790       C  0.20871729  0.63093258  0.62358200     0.07040
C1791       C  0.19619480  0.62752926  0.62388973     0.00840
H1792       H  0.21950363  0.64198157  0.63779074     0.08490
H1793       H  0.19115952  0.62177304  0.61711281     0.07570
N1794       N  0.18628052  0.65157727  0.67496212    -0.36270
N1795       N  0.17469623  0.64915678  0.67900195    -0.28450
C1796       C  0.17350242  0.65385053  0.69074446    -0.03690
C1797       C  0.18484638  0.65932268  0.69428887     0.04920
C1798       C  0.19258584  0.65789751  0.68394568     0.03010
H1799       H  0.16503044  0.65317452  0.69635738     0.08120
H1800       H  0.20213242  0.66130039  0.68288963     0.06950
N1801       N  0.26588423  0.54705871  0.57763365    -0.27430
N1802       N  0.25714275  0.55054265  0.58576658    -0.35290
C1803       C  0.26073817  0.54763504  0.59750703     0.00910
C1804       C  0.27246973  0.54216425  0.59706223     0.06930
C1805       C  0.27544633  0.54168861  0.58424712    -0.06170
H1806       H  0.25551319  0.55015203  0.60587739     0.07600
H1807       H  0.28417288  0.53838275  0.58016480     0.08800
Cu1808     Cu  0.24281612  0.56278216  0.58200815     0.44170
Cu1809     Cu  0.26380026  0.55161557  0.55825499     0.41990
Cu1810     Cu  0.24432140  0.58055683  0.55473075     0.43880
N1811       N  0.23727921  0.58119999  0.58161871    -0.34820
N1812       N  0.23823676  0.58832112  0.57149404    -0.29070
C1813       C  0.23532141  0.60027471  0.57458777    -0.05180
C1814       C  0.23256462  0.60054964  0.58736238     0.07040
C1815       C  0.23396062  0.58831044  0.59148288     0.00840
H1816       H  0.23549690  0.60815606  0.56813261     0.08490
H1817       H  0.23283621  0.58484609  0.60100800     0.07570
N1818       N  0.24939622  0.56877704  0.54005263    -0.36270
N1819       N  0.25650072  0.55853295  0.54090816    -0.28450
C1820       C  0.25723098  0.55328037  0.52929193    -0.03690
C1821       C  0.25013682  0.56051123  0.52093948     0.04920
C1822       C  0.24534360  0.57017546  0.52812601     0.03010
H1823       H  0.26224328  0.54468021  0.52714374     0.08120
H1824       H  0.23922864  0.57768507  0.52492644     0.06950
N1825       N  0.97075343  0.65948026  0.69052139    -0.27430
N1826       N  0.97999231  0.65163393  0.68779564    -0.35290
C1827       C  0.97686300  0.63991153  0.69118358     0.00910
C1828       C  0.96489991  0.64000336  0.69626579     0.06930
C1829       C  0.96126669  0.65268752  0.69571769    -0.06170
H1830       H  0.98260707  0.63174140  0.68919528     0.07600
H1831       H  0.95215497  0.65655414  0.69809536     0.08800
Cu1832     Cu  0.99427263  0.65563100  0.67560363     0.44170
Cu1833     Cu  0.97237154  0.67873372  0.68541955     0.41990
Cu1834     Cu  0.99343178  0.68299302  0.65757303     0.43880
N1835       N  0.00029003  0.65604499  0.65732190    -0.34820
N1836       N  0.99986450  0.66617613  0.65014322    -0.29070
C1837       C  0.00334853  0.66300053  0.63834027    -0.05180
C1838       C  0.00563948  0.65015456  0.63821618     0.07040
C1839       C  0.00370656  0.64610565  0.65038409     0.00840
H1840       H  0.00388435  0.66943875  0.63045883     0.08490
H1841       H  0.00457437  0.63658257  0.65391680     0.07570
N1842       N  0.98712738  0.69743693  0.66910045    -0.36270
N1843       N  0.97950677  0.69626814  0.67892149    -0.28450
C1844       C  0.97809517  0.70778440  0.68421819    -0.03690
C1845       C  0.98520592  0.71647987  0.67743970     0.04920
C1846       C  0.99079359  0.70950283  0.66801289     0.03010
H1847       H  0.97265704  0.70962323  0.69262515     0.08120
H1848       H  0.99720614  0.71294602  0.66088541     0.06950
N1849       N  0.08297112  0.57765597  0.61263077    -0.27430
N1850       N  0.07616315  0.58171154  0.62221118    -0.35290
C1851       C  0.08362501  0.58759544  0.63055517     0.00910
C1852       C  0.09578678  0.58734961  0.62608083     0.06930
C1853       C  0.09506804  0.58105438  0.61461144    -0.06170
H1854       H  0.08020923  0.59301911  0.63847498     0.07600
H1855       H  0.10259025  0.57981709  0.60785659     0.08800
Cu1856     Cu  0.05704599  0.58394025  0.62146225     0.44170
Cu1857     Cu  0.07460187  0.56918023  0.59692926     0.41990
Cu1858     Cu  0.04118796  0.57820373  0.59302610     0.43880
N1859       N  0.04212391  0.59465302  0.61552142    -0.34820
N1860       N  0.03613701  0.59284212  0.60474730    -0.29070
C1861       C  0.02794151  0.60236352  0.60289792    -0.05180
C1862       C  0.02924321  0.61066044  0.61288595     0.07040
C1863       C  0.03819391  0.60542975  0.62073494     0.00840
H1864       H  0.02188224  0.60339220  0.59473958     0.08490
H1865       H  0.04181484  0.60932609  0.62945716     0.07570
N1866       N  0.04971515  0.56317460  0.58410681    -0.36270
N1867       N  0.06176047  0.56007365  0.58504405    -0.28450
C1868       C  0.06366326  0.54938739  0.57847423    -0.03690
C1869       C  0.05227906  0.54558880  0.57315796     0.04920
C1870       C  0.04366723  0.55451520  0.57713854     0.03010
H1871       H  0.07257508  0.54445975  0.57806317     0.08120
H1872       H  0.03356163  0.55437093  0.57584168     0.06950
N1873       N  0.85754648  0.65489700  0.83675769    -0.27430
N1874       N  0.85488854  0.64340666  0.83281813    -0.35290
C1875       C  0.86007026  0.63499946  0.84056394     0.00910
C1876       C  0.86627293  0.64131007  0.85010022     0.06930
C1877       C  0.86440699  0.65403030  0.84748238    -0.06170
H1878       H  0.85982471  0.62493895  0.83895401     0.07600
H1879       H  0.86776882  0.66202484  0.85284462     0.08800
Cu1880     Cu  0.84706129  0.63857046  0.81595286     0.44170
Cu1881     Cu  0.85214076  0.67040131  0.82610077     0.41990
Cu1882     Cu  0.84805293  0.66015867  0.79239285     0.43880
N1883       N  0.85077673  0.63318493  0.79792567    -0.34820
N1884       N  0.85191437  0.64145475  0.78874813    -0.29070
C1885       C  0.85685327  0.63567230  0.77860262    -0.05180
C1886       C  0.85912330  0.62322836  0.78183951     0.07040
C1887       C  0.85508519  0.62197271  0.79410502     0.00840
H1888       H  0.85933217  0.64031436  0.76987704     0.08490
H1889       H  0.85595362  0.61375254  0.80007035     0.07570
N1890       N  0.84158500  0.67677763  0.80023657    -0.36270
N1891       N  0.84323856  0.68071805  0.81197384    -0.28450
C1892       C  0.83710436  0.69171372  0.81345896    -0.03690
C1893       C  0.83105128  0.69466527  0.80222119     0.04920
C1894       C  0.83423545  0.68499891  0.79409124     0.03010
H1895       H  0.83712925  0.69707836  0.82211559     0.08120
H1896       H  0.83116380  0.68378936  0.78443095     0.06950
N1897       N  0.93396277  0.57416710  0.71589532    -0.27430
N1898       N  0.92343358  0.58077811  0.71507801    -0.35290
C1899       C  0.92599058  0.59246440  0.71101774     0.00910
C1900       C  0.93876146  0.59343938  0.70894824     0.06930
C1901       C  0.94359376  0.58162862  0.71212045    -0.06170
H1902       H  0.91910729  0.59995260  0.71032562     0.07600
H1903       H  0.95342786  0.57895155  0.71241362     0.08800
Cu1904     Cu  0.90650807  0.57545467  0.72259672     0.44170
Cu1905     Cu  0.93412232  0.55595563  0.72404399     0.41990
Cu1906     Cu  0.90930771  0.55431865  0.74793465     0.43880
N1907       N  0.89473853  0.57609659  0.73780782    -0.34820
N1908       N  0.89633787  0.56893386  0.74784511    -0.29070
C1909       C  0.88936745  0.57361385  0.75733192    -0.05180
C1910       C  0.88305855  0.58419611  0.75293347     0.07040
C1911       C  0.88678774  0.58549967  0.74055090     0.00840
H1912       H  0.88949573  0.57007012  0.76689506     0.08490
H1913       H  0.88497402  0.59344103  0.73442072     0.07570
N1914       N  0.92097800  0.53934082  0.74329081    -0.36270
N1915       N  0.92968237  0.53946748  0.73437811    -0.28450
C1916       C  0.93409528  0.52758306  0.73295824    -0.03690
C1917       C  0.92792778  0.51966068  0.74145671     0.04920
C1918       C  0.91971342  0.52758123  0.74776741     0.03010
H1919       H  0.94075854  0.52481718  0.72578526     0.08120
H1920       H  0.91285914  0.52489743  0.75480419     0.06950
N1921       N  0.83518375  0.83791736  0.13636709    -0.27430
N1922       N  0.84669271  0.83325119  0.13690942    -0.35290
C1923       C  0.85454666  0.84063380  0.13036327     0.00910
C1924       C  0.84778720  0.85068411  0.12558826     0.06930
C1925       C  0.83546725  0.84861647  0.12956048    -0.06170
H1926       H  0.86413472  0.83805192  0.12811777     0.07600
H1927       H  0.82719474  0.85398414  0.12695469     0.08800
Cu1928     Cu  0.85077389  0.81535018  0.14276216     0.44170
Cu1929     Cu  0.81976877  0.82762167  0.14261033     0.41990
Cu1930     Cu  0.82588911  0.79384311  0.13732186     0.43880
N1931       N  0.85380770  0.79692619  0.13806582    -0.34820
N1932       N  0.84468479  0.78913171  0.13472318    -0.29070
C1933       C  0.84986167  0.77886405  0.12937470    -0.05180
C1934       C  0.86286212  0.78033050  0.12957013     0.07040
C1935       C  0.86497701  0.79191376  0.13505279     0.00840
H1936       H  0.84457860  0.77118330  0.12521058     0.08490
H1937       H  0.87388317  0.79684757  0.13573019     0.07570
N1938       N  0.80985349  0.80109134  0.14581090    -0.36270
N1939       N  0.80787446  0.81314288  0.14829659    -0.28450
C1940       C  0.79759048  0.81416115  0.15562144    -0.03690
C1941       C  0.79295343  0.80218106  0.15798509     0.04920
C1942       C  0.80082885  0.79418767  0.15135892     0.03010
H1943       H  0.79404652  0.82295056  0.15936048     0.08120
H1944       H  0.80026796  0.78404402  0.15075458     0.06950
N1945       N  0.91160048  0.71733254  0.05162366    -0.27430
N1946       N  0.90551307  0.71618919  0.06239779    -0.35290
C1947       C  0.89400875  0.71144076  0.06035489     0.00910
C1948       C  0.89259091  0.70906674  0.04766422     0.06930
C1949       C  0.90391540  0.71308926  0.04229047    -0.06170
H1950       H  0.88690558  0.71047354  0.06758542     0.07600
H1951       H  0.90626552  0.71311215  0.03237552     0.08800
Cu1952     Cu  0.91120758  0.72363634  0.07919744     0.44170
Cu1953     Cu  0.92967968  0.72575942  0.05144565     0.41990
Cu1954     Cu  0.93258919  0.74843674  0.07810210     0.43880
N1955       N  0.90984806  0.73864749  0.09108519    -0.34820
N1956       N  0.91733266  0.74854951  0.09034577    -0.29070
C1957       C  0.91238557  0.75792035  0.09733459    -0.05180
C1958       C  0.90120833  0.75356694  0.10249362     0.07040
C1959       C  0.89990816  0.74135939  0.09834298     0.00840
H1960       H  0.91614210  0.76738202  0.09789808     0.08490
H1961       H  0.89184190  0.73525438  0.09964949     0.07570
N1962       N  0.94717151  0.74361799  0.06593504    -0.36270
N1963       N  0.94647390  0.73530232  0.05662406    -0.28450
C1964       C  0.95814354  0.73387709  0.05171573    -0.03690
C1965       C  0.96646116  0.74182707  0.05806686     0.04920
C1966       C  0.95912633  0.74771441  0.06706234     0.03010
H1967       H  0.96046089  0.72740977  0.04419026     0.08120
H1968       H  0.96235497  0.75411789  0.07432810     0.06950
N1969       N  0.90625071  0.60496889  0.90193240    -0.27430
N1970       N  0.89483262  0.60187928  0.90574560    -0.35290
C1971       C  0.88628104  0.60656443  0.89778525     0.00910
C1972       C  0.89249599  0.61264958  0.88817309     0.06930
C1973       C  0.90522429  0.61162537  0.89114259    -0.06170
H1974       H  0.87622885  0.60632188  0.89943983     0.07600
H1975       H  0.91306727  0.61571674  0.88608918     0.08800
Cu1976     Cu  0.89048187  0.59450042  0.92291931     0.44170
Cu1977     Cu  0.92186462  0.60062723  0.91288789     0.41990
Cu1978     Cu  0.91275181  0.59670651  0.94663356     0.43880
N1979       N  0.88552238  0.59888038  0.94093284    -0.34820
N1980       N  0.89389152  0.60056756  0.94999930    -0.29070
C1981       C  0.88813659  0.60605798  0.95988783    -0.05180
C1982       C  0.87562806  0.60810035  0.95659681     0.07040
C1983       C  0.87430475  0.60331740  0.94459190     0.00840
H1984       H  0.89284097  0.60906583  0.96844242     0.08490
H1985       H  0.86602006  0.60377291  0.93862750     0.07570
N1986       N  0.92961597  0.59081023  0.93866162    -0.36270
N1987       N  0.93302733  0.59247461  0.92676510    -0.28450
C1988       C  0.94408552  0.58660332  0.92482468    -0.03690
C1989       C  0.94773501  0.58095122  0.93597651     0.04920
C1990       C  0.93834404  0.58372549  0.94450618     0.03010
H1991       H  0.94874768  0.58590582  0.91579282     0.08120
H1992       H  0.93770043  0.58050136  0.95415689     0.06950
N1993       N  0.82691522  0.68634887  0.01758223    -0.27430
N1994       N  0.83275490  0.67555289  0.01963063    -0.35290
C1995       C  0.84414719  0.67768481  0.02463399     0.00910
C1996       C  0.84586632  0.69048160  0.02586603     0.06930
C1997       C  0.83468775  0.69579747  0.02134379    -0.06170
H1998       H  0.85094307  0.67038911  0.02677731     0.07600
H1999       H  0.83239334  0.70571145  0.02086274     0.08800
Cu2000     Cu  0.82694319  0.65837136  0.01312406     0.44170
Cu2001     Cu  0.80879028  0.68636577  0.00923514     0.41990
Cu2002     Cu  0.80553335  0.65877291  0.98812550     0.43880
N2003       N  0.82795609  0.64565077  0.99869884    -0.34820
N2004       N  0.82060512  0.64628175  0.98866741    -0.29070
C2005       C  0.82545859  0.63885782  0.97960126    -0.05180
C2006       C  0.83636122  0.63327606  0.98428705     0.07040
C2007       C  0.83765801  0.63792323  0.99637832     0.00840
H2008       H  0.82177843  0.63816317  0.97009889     0.08490
H2009       H  0.84573554  0.63685433  0.00254300     0.07570
N2010       N  0.79085193  0.67088689  0.99279379    -0.36270
N2011       N  0.79170875  0.68060867  0.00059714    -0.28450
C2012       C  0.78000946  0.68536747  0.00230284    -0.03690
C2013       C  0.77143935  0.67829511  0.99526388     0.04920
C2014       C  0.77874415  0.66931314  0.98931236     0.03010
H2015       H  0.77789166  0.69332616  0.00829727     0.08120
H2016       H  0.77540702  0.66180768  0.98325035     0.06950
N2017       N  0.77103332  0.05167189  0.07661245    -0.27430
N2018       N  0.77195893  0.06190962  0.08366296    -0.35290
C2019       C  0.77582515  0.05884550  0.09531453     0.00910
C2020       C  0.77751717  0.04601664  0.09584922     0.06930
C2021       C  0.77455087  0.04169159  0.08377108    -0.06170
H2022       H  0.77677039  0.06545474  0.10303071     0.07600
H2023       H  0.77436652  0.03199088  0.08065301     0.08800
Cu2024     Cu  0.76540374  0.07932528  0.07867044     0.44170
Cu2025     Cu  0.76335362  0.05257777  0.05810897     0.41990
Cu2026     Cu  0.74257352  0.08049970  0.05480592     0.43880
N2027       N  0.75198727  0.09313104  0.07805283    -0.34820
N2028       N  0.74289985  0.09335518  0.06954933    -0.29070
C2029       C  0.73398678  0.10153077  0.07334293    -0.05180
C2030       C  0.73770162  0.10665456  0.08485028     0.07040
C2031       C  0.74913387  0.10097879  0.08750637     0.00840
H2032       H  0.72501956  0.10282859  0.06862974     0.08490
H2033       H  0.75421693  0.10125458  0.09636024     0.07570
N2034       N  0.74586091  0.06743877  0.04060811    -0.36270
N2035       N  0.75367592  0.05771865  0.04129449    -0.28450
C2036       C  0.75420503  0.05227793  0.02975054    -0.03690
C2037       C  0.74613471  0.05871484  0.02160766     0.04920
C2038       C  0.74113538  0.06827299  0.02886084     0.03010
H2039       H  0.76008997  0.04430294  0.02740720     0.08120
H2040       H  0.73489547  0.07568253  0.02567254     0.06950
N2041       N  0.65459098  0.12439936  0.15874940    -0.27430
N2042       N  0.66168718  0.11555444  0.15368168    -0.35290
C2043       C  0.65458155  0.10813516  0.14633981     0.00910
C2044       C  0.64231380  0.11241838  0.14671042     0.06930
C2045       C  0.64259751  0.12267010  0.15488198    -0.06170
H2046       H  0.65827641  0.10066074  0.14048938     0.07600
H2047       H  0.63480002  0.12859240  0.15765261     0.08800
Cu2048     Cu  0.68094511  0.11563140  0.15368279     0.44170
Cu2049     Cu  0.66245593  0.13911836  0.16901788     0.41990
Cu2050     Cu  0.69444932  0.14561731  0.15723051     0.43880
N2051       N  0.69593417  0.12148014  0.14315786    -0.34820
N2052       N  0.70050187  0.13302993  0.14362547    -0.29070
C2053       C  0.70826237  0.13474730  0.13374882    -0.05180
C2054       C  0.70823984  0.12377951  0.12662835     0.07040
C2055       C  0.70051573  0.11552683  0.13303873     0.00840
H2056       H  0.71309414  0.14346035  0.13161152     0.08490
H2057       H  0.69797742  0.10603369  0.13032715     0.07570
N2058       N  0.68654305  0.15392862  0.17301995    -0.36270
N2059       N  0.67510211  0.15157619  0.17738484    -0.28450
C2060       C  0.67367839  0.15757474  0.18846709    -0.03690
C2061       C  0.68469481  0.16408367  0.19114130     0.04920
C2062       C  0.69265423  0.16144731  0.18119085     0.03010
H2063       H  0.66540656  0.15686764  0.19436757     0.08120
H2064       H  0.70245299  0.16412160  0.18031015     0.06950
N2065       N  0.79763040  0.01294138  0.16068939    -0.27430
N2066       N  0.80061886  0.00387433  0.15270743    -0.35290
C2067       C  0.79765877  0.00728101  0.14091860     0.00910
C2068       C  0.79274040  0.01926682  0.14113557     0.06930
C2069       C  0.79257210  0.02254472  0.15391362    -0.06170
H2070       H  0.79970674  0.00166037  0.13267134     0.07600
H2071       H  0.78965595  0.03147615  0.15785222     0.08800
Cu2072     Cu  0.81258962  0.98937686  0.15664120     0.44170
Cu2073     Cu  0.80240803  0.01110327  0.18010119     0.41990
Cu2074     Cu  0.83130251  0.99145899  0.18330699     0.43880
N2075       N  0.83118914  0.98438901  0.15644516    -0.34820
N2076       N  0.83866323  0.98541181  0.16634907    -0.29070
C2077       C  0.85058954  0.98283231  0.16281672    -0.05180
C2078       C  0.85046773  0.98052865  0.14995310     0.07040
C2079       C  0.83802768  0.98146947  0.14628795     0.00840
H2080       H  0.85870599  0.98293505  0.16902217     0.08490
H2081       H  0.83423126  0.98028736  0.13687646     0.07570
N2082       N  0.82006808  0.99716099  0.19817683    -0.36270
N2083       N  0.80978943  0.00422468  0.19748359    -0.28450
C2084       C  0.80516161  0.00554248  0.20931441    -0.03690
C2085       C  0.81299866  0.99913202  0.21774122     0.04920
C2086       C  0.82214558  0.99380538  0.21019460     0.03010
H2087       H  0.79675606  0.01080080  0.21164181     0.08120
H2088       H  0.82971159  0.98764599  0.21315578     0.06950
N2089       N  0.87620691  0.90088291  0.07901460    -0.27430
N2090       N  0.86698267  0.90736452  0.08424351    -0.35290
C2091       C  0.85926386  0.89950482  0.09038128     0.00910
C2092       C  0.86384263  0.88743900  0.08909458     0.06930
C2093       C  0.87469749  0.88862018  0.08192502    -0.06170
H2094       H  0.85183072  0.90251708  0.09665728     0.07600
H2095       H  0.88144286  0.88128927  0.07979343     0.08800
Cu2096     Cu  0.86782877  0.92639932  0.08720825     0.44170
Cu2097     Cu  0.89088433  0.90986104  0.06966629     0.41990
Cu2098     Cu  0.89502871  0.94343627  0.07849158     0.43880
N2099       N  0.87384258  0.94219829  0.09660555    -0.34820
N2100       N  0.88402384  0.94868708  0.09361554    -0.29070
C2101       C  0.88584526  0.95780033  0.10229135    -0.05180
C2102       C  0.87650034  0.95659997  0.11128049     0.07040
C2103       C  0.86903430  0.94672631  0.10733339     0.00840
H2104       H  0.89352064  0.96451658  0.10223194     0.08490
H2105       H  0.86078070  0.94299912  0.11200499     0.07570
N2106       N  0.90319888  0.93482063  0.06307319    -0.36270
N2107       N  0.90195789  0.92279172  0.05995537    -0.28450
C2108       C  0.90794738  0.92078015  0.04896735    -0.03690
C2109       C  0.91309151  0.93206768  0.04506852     0.04920
C2110       C  0.90992455  0.94074704  0.05416808     0.03010
H2111       H  0.90807930  0.91190908  0.04394635     0.08120
H2112       H  0.91200991  0.95072490  0.05413119     0.06950
N2113       N  0.07622924  0.76918805  0.05196970    -0.27430
N2114       N  0.08256768  0.77016762  0.06262167    -0.35290
C2115       C  0.09447949  0.77350756  0.06027276     0.00910
C2116       C  0.09613261  0.77499881  0.04737657     0.06930
C2117       C  0.08409290  0.77229402  0.04243994    -0.06170
H2118       H  0.10156129  0.77398662  0.06760388     0.07600
H2119       H  0.08109914  0.77227482  0.03272782     0.08800
Cu2120     Cu  0.07645619  0.76388585  0.07972272     0.44170
Cu2121     Cu  0.05777139  0.76164859  0.05193968     0.41990
Cu2122     Cu  0.05506550  0.73886187  0.07824118     0.43880
N2123       N  0.07751191  0.74898143  0.09179243    -0.34820
N2124       N  0.07012636  0.73902083  0.09083715    -0.29070
C2125       C  0.07509596  0.72964197  0.09781140    -0.05180
C2126       C  0.08617749  0.73402501  0.10328855     0.07040
C2127       C  0.08739787  0.74628246  0.09919926     0.00840
H2128       H  0.07151012  0.72010084  0.09801885     0.08490
H2129       H  0.09543851  0.75241850  0.10058205     0.07570
N2130       N  0.04044468  0.74342471  0.06592826    -0.36270
N2131       N  0.04104663  0.75191279  0.05678439    -0.28450
C2132       C  0.02937053  0.75328597  0.05180169    -0.03690
C2133       C  0.02115061  0.74511488  0.05792420     0.04920
C2134       C  0.02854516  0.73913496  0.06685716     0.03010
H2135       H  0.02697176  0.75989523  0.04441609     0.08120
H2136       H  0.02536956  0.73259040  0.07399175     0.06950
N2137       N  0.15468373  0.64771405  0.13495143    -0.27430
N2138       N  0.14313285  0.65220991  0.13419550    -0.35290
C2139       C  0.13606615  0.64464422  0.12699648     0.00910
C2140       C  0.14339250  0.63468836  0.12292568     0.06930
C2141       C  0.15517704  0.63683330  0.12841520    -0.06170
H2142       H  0.12650841  0.64682669  0.12416474     0.07600
H2143       H  0.16359947  0.63121705  0.12755124     0.08800
Cu2144     Cu  0.13790902  0.66978962  0.13981017     0.44170
Cu2145     Cu  0.16913714  0.65844503  0.14277311     0.41990
Cu2146     Cu  0.16162481  0.69275036  0.13982758     0.43880
N2147       N  0.13428429  0.68816779  0.13568371    -0.34820
N2148       N  0.14312198  0.69686744  0.13488311    -0.29070
C2149       C  0.13797245  0.70741241  0.13003338    -0.05180
C2150       C  0.12532628  0.70499756  0.12747619     0.07040
C2151       C  0.12337210  0.69274005  0.13129833     0.00840
H2152       H  0.14309519  0.71605900  0.12836708     0.08490
H2153       H  0.11481509  0.68727227  0.13027511     0.07570
N2154       N  0.17779928  0.68526877  0.14801017    -0.36270
N2155       N  0.18032111  0.67313842  0.14948741    -0.28450
C2156       C  0.19093501  0.67198573  0.15638121    -0.03690
C2157       C  0.19521938  0.68391922  0.15951885     0.04920
C2158       C  0.18677900  0.69207588  0.15382106     0.03010
H2159       H  0.19503167  0.66308992  0.15920742     0.08120
H2160       H  0.18701813  0.70225232  0.15392156     0.06950
N2161       N  0.16155287  0.79932274  0.01821315    -0.27430
N2162       N  0.15347437  0.80876311  0.01743307    -0.35290
C2163       C  0.14220813  0.80523842  0.02183666     0.00910
C2164       C  0.14300956  0.79295047  0.02573111     0.06930
C2165       C  0.15544487  0.78937955  0.02341319    -0.06170
H2166       H  0.13390714  0.81115669  0.02191135     0.07600
H2167       H  0.15960327  0.78023496  0.02511354     0.08800
Cu2168     Cu  0.15678080  0.82551055  0.00872621     0.44170
Cu2169     Cu  0.18001933  0.80134779  0.01089255     0.41990
Cu2170     Cu  0.18193515  0.82856253  0.98819882     0.43880
N2171       N  0.15667816  0.83854044  0.99466131    -0.34820
N2172       N  0.16590519  0.83968340  0.98644170    -0.29070
C2173       C  0.16226590  0.84782151  0.97736946    -0.05180
C2174       C  0.15008939  0.85169325  0.98009978     0.07040
C2175       C  0.14688703  0.84565863  0.99110794     0.00840
H2176       H  0.16775338  0.85020007  0.96912840     0.08490
H2177       H  0.13787109  0.84591325  0.99584611     0.07570
N2178       N  0.19683127  0.81677749  0.99313918    -0.36270
N2179       N  0.19653894  0.80738017  0.00138274    -0.28450
C2180       C  0.20833544  0.80261591  0.00241826    -0.03690
C2181       C  0.21626109  0.80913331  0.99426819     0.04920
C2182       C  0.20861384  0.81807210  0.98869397     0.03010
H2183       H  0.21096241  0.79495264  0.00860954     0.08120
H2184       H  0.21148622  0.82528463  0.98209548     0.06950
N2185       N  0.08089212  0.88033333  0.90062924    -0.27430
N2186       N  0.09282915  0.88265456  0.90341530    -0.35290
C2187       C  0.10026211  0.87590527  0.89580879     0.00910
C2188       C  0.09269040  0.86896678  0.88784415     0.06930
C2189       C  0.08042875  0.87212518  0.89093794    -0.06170
H2190       H  0.11044448  0.87564223  0.89642566     0.07600
H2191       H  0.07186542  0.86827508  0.88691517     0.08800
Cu2192     Cu  0.09904052  0.89208636  0.91914359     0.44170
Cu2193     Cu  0.06625369  0.88718427  0.91152871     0.41990
Cu2194     Cu  0.07720961  0.89296321  0.94385261     0.43880
N2195       N  0.10448122  0.89074648  0.93765089    -0.34820
N2196       N  0.09623876  0.88976406  0.94688998    -0.29070
C2197       C  0.10211553  0.88509366  0.95713200    -0.05180
C2198       C  0.11469036  0.88328681  0.95415384     0.07040
C2199       C  0.11582738  0.88690397  0.94173171     0.00840
H2200       H  0.09741502  0.88226827  0.96571708     0.08490
H2201       H  0.12387132  0.88532607  0.93568993     0.07570
N2202       N  0.05961962  0.89802896  0.93696560    -0.36270
N2203       N  0.05552359  0.89576925  0.92537564    -0.28450
C2204       C  0.04406340  0.90100159  0.92391700    -0.03690
C2205       C  0.04088231  0.90687276  0.93508918     0.04920
C2206       C  0.05095922  0.90488629  0.94311130     0.03010
H2207       H  0.03873549  0.90105427  0.91519769     0.08120
H2208       H  0.05206633  0.90844789  0.95261009     0.06950
N2209       N  0.21672775  0.43237685  0.07540437    -0.27430
N2210       N  0.21613549  0.42198600  0.08220609    -0.35290
C2211       C  0.21266652  0.42478890  0.09402161     0.00910
C2212       C  0.21087004  0.43765428  0.09502336     0.06930
C2213       C  0.21331530  0.44214408  0.08284628    -0.06170
H2214       H  0.21236401  0.41796915  0.10158866     0.07600
H2215       H  0.21291355  0.45176592  0.07960122     0.08800
Cu2216     Cu  0.22307322  0.40484485  0.07669817     0.44170
Cu2217     Cu  0.22432704  0.43221300  0.05696215     0.41990
Cu2218     Cu  0.24831118  0.40745437  0.05529198     0.43880
N2219       N  0.23812656  0.39280804  0.07704442    -0.34820
N2220       N  0.24822572  0.39454187  0.07001467    -0.29070
C2221       C  0.25774968  0.38764377  0.07480684    -0.05180
C2222       C  0.25326536  0.38116578  0.08522214     0.07040
C2223       C  0.24082763  0.38471975  0.08637324     0.00840
H2224       H  0.26737407  0.38793125  0.07146847     0.08490
H2225       H  0.23465354  0.38272525  0.09422455     0.07570
N2226       N  0.24370590  0.41922072  0.04029249    -0.36270
N2227       N  0.23471852  0.42787535  0.04048994    -0.28450
C2228       C  0.23348386  0.43264469  0.02871678    -0.03690
C2229       C  0.24225811  0.42688166  0.02084978     0.04920
C2230       C  0.24843888  0.41837066  0.02857061     0.03010
H2231       H  0.22658194  0.43964268  0.02600798     0.08120
H2232       H  0.25544772  0.41154901  0.02572725     0.06950
N2233       N  0.33793384  0.35542702  0.15717245    -0.27430
N2234       N  0.33449925  0.35459448  0.14521819    -0.35290
C2235       C  0.34299484  0.36039671  0.13796518     0.00910
C2236       C  0.35233470  0.36506589  0.14565342     0.06930
C2237       C  0.34895180  0.36177911  0.15783041    -0.06170
H2238       H  0.34215464  0.36157590  0.12786371     0.07600
H2239       H  0.35387375  0.36414228  0.16646479     0.08800
Cu2240     Cu  0.31743100  0.34810848  0.13909327     0.44170
Cu2241     Cu  0.32639696  0.34839799  0.17135661     0.41990
Cu2242     Cu  0.29298018  0.34418763  0.16075682     0.43880
N2243       N  0.29895886  0.35026057  0.13413457    -0.34820
N2244       N  0.28956658  0.34944837  0.14221722    -0.29070
C2245       C  0.27894476  0.35356779  0.13654374    -0.05180
C2246       C  0.28204994  0.35728744  0.12441632     0.07040
C2247       C  0.29475587  0.35500012  0.12321515     0.00840
H2248       H  0.26988847  0.35450815  0.14110964     0.08490
H2249       H  0.30067819  0.35736641  0.11527471     0.07570
N2250       N  0.30057969  0.33752910  0.17755978    -0.36270
N2251       N  0.31237770  0.33907771  0.18143387    -0.28450
C2252       C  0.31398883  0.33280091  0.19234744    -0.03690
C2253       C  0.30277636  0.32686678  0.19534010     0.04920
C2254       C  0.29446299  0.33019787  0.18585755     0.03010
H2255       H  0.32279569  0.33224340  0.19749802     0.08120
H2256       H  0.28468944  0.32740655  0.18496080     0.06950
N2257       N  0.11222890  0.58378492  0.07776146    -0.27430
N2258       N  0.12132624  0.57705580  0.08296596    -0.35290
C2259       C  0.12907681  0.58464263  0.08944784     0.00910
C2260       C  0.12462110  0.59677696  0.08848461     0.06930
C2261       C  0.11396471  0.59597215  0.08087701    -0.06170
H2262       H  0.13653399  0.58137576  0.09561676     0.07600
H2263       H  0.10752189  0.60350247  0.07848512     0.08800
Cu2264     Cu  0.12045349  0.55798452  0.08538990     0.44170
Cu2265     Cu  0.09721072  0.57524855  0.06841858     0.41990
Cu2266     Cu  0.09243644  0.54197176  0.07793971     0.43880
N2267       N  0.11407498  0.54293802  0.09561034    -0.34820
N2268       N  0.10344695  0.53692642  0.09318884    -0.29070
C2269       C  0.10127035  0.52855529  0.10247831    -0.05180
C2270       C  0.11086487  0.52977419  0.11128371     0.07040
C2271       C  0.11886317  0.53883509  0.10654661     0.00840
H2272       H  0.09318537  0.52235883  0.10296417     0.08490
H2273       H  0.12745191  0.54234402  0.11082922     0.07570
N2274       N  0.08457774  0.55035912  0.06219574    -0.36270
N2275       N  0.08585836  0.56232113  0.05894242    -0.28450
C2276       C  0.07985346  0.56420871  0.04790876    -0.03690
C2277       C  0.07483394  0.55282260  0.04386264     0.04920
C2278       C  0.07791599  0.54433557  0.05327393     0.03010
H2279       H  0.07933110  0.57322335  0.04322162     0.08120
H2280       H  0.07585497  0.53435513  0.05344311     0.06950
N2281       N  0.19033491  0.47003510  0.16034342    -0.27430
N2282       N  0.18601819  0.47777591  0.15158696    -0.35290
C2283       C  0.18988787  0.47411248  0.14017609     0.00910
C2284       C  0.19694450  0.46334992  0.14145896     0.06930
C2285       C  0.19710378  0.46093784  0.15443876    -0.06170
H2286       H  0.18698414  0.47849675  0.13142657     0.07600
H2287       H  0.20157926  0.45308027  0.15914709     0.08800
Cu2288     Cu  0.17228232  0.49083782  0.15423597     0.44170
Cu2289     Cu  0.18558485  0.47316989  0.17960906     0.41990
Cu2290     Cu  0.15671753  0.49373115  0.18228890     0.43880
N2291       N  0.15419281  0.49720179  0.15492554    -0.34820
N2292       N  0.14791455  0.49846299  0.16553789    -0.29070
C2293       C  0.13618798  0.50260959  0.16286199    -0.05180
C2294       C  0.13511502  0.50349751  0.14985303     0.07040
C2295       C  0.14672916  0.50011923  0.14518108     0.00840
H2296       H  0.12906195  0.50481890  0.16978819     0.08490
H2297       H  0.14964658  0.50006892  0.13541369     0.07570
N2298       N  0.16851316  0.48866316  0.19704345    -0.36270
N2299       N  0.17857503  0.48127499  0.19662514    -0.28450
C2300       C  0.18334877  0.48043650  0.20848346    -0.03690
C2301       C  0.17601934  0.48775716  0.21662429     0.04920
C2302       C  0.16676580  0.49272067  0.20887287     0.03010
H2303       H  0.19138467  0.47470082  0.21099207     0.08120
H2304       H  0.15919702  0.49896309  0.21160626     0.06950
N2305       N  0.40249623  0.40367095  0.10624109    -0.27430
N2306       N  0.40566626  0.39201112  0.10339044    -0.35290
C2307       C  0.39808527  0.38402227  0.10952531     0.00910
C2308       C  0.38977227  0.39089035  0.11688410     0.06930
C2309       C  0.39292473  0.40340084  0.11454219    -0.06170
H2310       H  0.39921684  0.37390474  0.10930130     0.07600
H2311       H  0.38934296  0.41169254  0.11919489     0.08800
Cu2312     Cu  0.42277486  0.38721731  0.09570055     0.44170
Cu2313     Cu  0.41275271  0.41893340  0.09974679     0.41990
Cu2314     Cu  0.44599586  0.41140564  0.09982664     0.43880
N2315       N  0.44144278  0.38356256  0.09960907    -0.34820
N2316       N  0.44981327  0.39240539  0.10227970    -0.29070
C2317       C  0.46015712  0.38694062  0.10722720    -0.05180
C2318       C  0.45818252  0.37403683  0.10752712     0.07040
C2319       C  0.44619933  0.37227628  0.10271272     0.00840
H2320       H  0.46825692  0.39200456  0.11084746     0.08490
H2321       H  0.44088629  0.36357375  0.10256880     0.07570
N2322       N  0.43863682  0.42811923  0.09288555    -0.36270
N2323       N  0.42645164  0.43057791  0.09216141    -0.28450
C2324       C  0.42473876  0.44102046  0.08518657    -0.03690
C2325       C  0.43645695  0.44558307  0.08155348     0.04920
C2326       C  0.44500518  0.43707032  0.08663685     0.03010
H2327       H  0.41557495  0.44445349  0.08235798     0.08120
H2328       H  0.45512361  0.43702492  0.08542540     0.06950
N2329       N  0.52069334  0.32462518  0.18561517    -0.27430
N2330       N  0.52237133  0.33056226  0.17481724    -0.35290
C2331       C  0.52698030  0.34209657  0.17692600     0.00910
C2332       C  0.52841839  0.34385141  0.18973439     0.06930
C2333       C  0.52440460  0.33246151  0.19504257    -0.06170
H2334       H  0.52850154  0.34902092  0.16960222     0.07600
H2335       H  0.52409987  0.33008899  0.20494753     0.08800
Cu2336     Cu  0.51540628  0.32485565  0.15778309     0.44170
Cu2337     Cu  0.51226520  0.30651977  0.18563008     0.41990
Cu2338     Cu  0.48994937  0.30404502  0.15872974     0.43880
N2339       N  0.50033801  0.32669281  0.14589540    -0.34820
N2340       N  0.49027618  0.31940415  0.14655431    -0.29070
C2341       C  0.48099569  0.32459724  0.13956904    -0.05180
C2342       C  0.48552987  0.33576108  0.13453309     0.07040
C2343       C  0.49779391  0.33676601  0.13871542     0.00840
H2344       H  0.47146284  0.32101550  0.13893664     0.08490
H2345       H  0.50407806  0.34469930  0.13744948     0.07570
N2346       N  0.49432597  0.28928735  0.17092624    -0.36270
N2347       N  0.50264127  0.28980157  0.18028261    -0.28450
C2348       C  0.50395634  0.27806618  0.18509423    -0.03690
C2349       C  0.49590753  0.26990927  0.17865341     0.04920
C2350       C  0.49006723  0.27740109  0.16971663     0.03010
H2351       H  0.51042421  0.27559033  0.19260046     0.08120
H2352       H  0.48361229  0.27430602  0.16242184     0.06950
N2353       N  0.55230647  0.40988652  0.21786170    -0.27430
N2354       N  0.56305680  0.40383049  0.21626619    -0.35290
C2355       C  0.56089523  0.39250873  0.21115936     0.00910
C2356       C  0.54813372  0.39114583  0.20919683     0.06930
C2357       C  0.54285005  0.40232426  0.21367988    -0.06170
H2358       H  0.56810610  0.38549492  0.20952984     0.07600
H2359       H  0.53293961  0.40470012  0.21395125     0.08800
Cu2360     Cu  0.58001014  0.40927286  0.22364196     0.44170
Cu2361     Cu  0.55241481  0.42792996  0.22639082     0.41990
Cu2362     Cu  0.57952939  0.43084656  0.24848826     0.43880
N2363       N  0.59212941  0.40789986  0.23856669    -0.34820
N2364       N  0.59161062  0.41541185  0.24846727    -0.29070
C2365       C  0.59875690  0.41043866  0.25775523    -0.05180
C2366       C  0.60382229  0.39924165  0.25334538     0.07040
C2367       C  0.59941317  0.39793753  0.24120191     0.00840
H2368       H  0.59950474  0.41420458  0.26720797     0.08490
H2369       H  0.60055774  0.38984551  0.23510597     0.07570
N2370       N  0.56755703  0.44560791  0.24353034    -0.36270
N2371       N  0.55805888  0.44488131  0.23539434    -0.28450
C2372       C  0.55333616  0.45660244  0.23371215    -0.03690
C2373       C  0.56016827  0.46504232  0.24113458     0.04920
C2374       C  0.56899206  0.45764255  0.24726234     0.03010
H2375       H  0.54554761  0.45882894  0.22749468     0.08120
H2376       H  0.57628720  0.46087001  0.25365265     0.06950
N2377       N  0.63284267  0.33140463  0.33623648    -0.27430
N2378       N  0.63488551  0.34276284  0.33162879    -0.35290
C2379       C  0.62955434  0.35136213  0.33910060     0.00910
C2380       C  0.62412101  0.34526169  0.34918993     0.06930
C2381       C  0.62622343  0.33252938  0.34702064    -0.06170
H2382       H  0.62905834  0.36129397  0.33689930     0.07600
H2383       H  0.62295714  0.32470614  0.35267266     0.08800
Cu2384     Cu  0.64223763  0.34647083  0.31421552     0.44170
Cu2385     Cu  0.63835791  0.31554662  0.32626779     0.41990
Cu2386     Cu  0.63725818  0.32257460  0.29208501     0.43880
N2387       N  0.63876855  0.35030937  0.29565362    -0.34820
N2388       N  0.63545507  0.34150369  0.28750735    -0.29070
C2389       C  0.63042059  0.34708691  0.27726007    -0.05180
C2390       C  0.63081744  0.36002373  0.27910780     0.07040
C2391       C  0.63610101  0.36168228  0.29088086     0.00840
H2392       H  0.62617449  0.34212659  0.26940580     0.08490
H2393       H  0.63667881  0.37040172  0.29613869     0.07570
N2394       N  0.64432471  0.30611748  0.30000471    -0.36270
N2395       N  0.64520415  0.30377424  0.31223142    -0.28450
C2396       C  0.65218383  0.29333341  0.31394347    -0.03690
C2397       C  0.65573771  0.28874941  0.30224010     0.04920
C2398       C  0.65058314  0.29715213  0.29366670     0.03010
H2399       H  0.65513889  0.28990591  0.32308129     0.08120
H2400       H  0.65182478  0.29713699  0.28354822     0.06950
N2401       N  0.66246537  0.29954140  0.51997560    -0.27430
N2402       N  0.65643518  0.31029099  0.52167939    -0.35290
C2403       C  0.64514039  0.30813733  0.52682689     0.00910
C2404       C  0.64373665  0.29538598  0.52865625     0.06930
C2405       C  0.65488237  0.29009861  0.52408783    -0.06170
H2406       H  0.63811671  0.31533711  0.52846621     0.07600
H2407       H  0.65719129  0.28018718  0.52364585     0.08800
Cu2408     Cu  0.66154294  0.32717413  0.51401301     0.44170
Cu2409     Cu  0.68044229  0.29955532  0.51124616     0.41990
Cu2410     Cu  0.68192399  0.32563255  0.48826883     0.43880
N2411       N  0.65942594  0.33859990  0.49865911    -0.34820
N2412       N  0.66654356  0.33767578  0.48852777    -0.29070
C2413       C  0.66135617  0.34462394  0.47924016    -0.05180
C2414       C  0.65029940  0.34985723  0.48379989     0.07040
C2415       C  0.64946319  0.34594618  0.49615852     0.00840
H2416       H  0.66495910  0.34525254  0.46973106     0.08490
H2417       H  0.64184347  0.34774436  0.50266856     0.07570
N2418       N  0.69710794  0.31420459  0.49295264    -0.36270
N2419       N  0.69702718  0.30512169  0.50152498    -0.28450
C2420       C  0.70898731  0.30084818  0.50291257    -0.03690
C2421       C  0.71683891  0.30752104  0.49477297     0.04920
C2422       C  0.70889313  0.31579150  0.48861166     0.03010
H2423       H  0.71178391  0.29350244  0.50940763     0.08120
H2424       H  0.71159113  0.32286042  0.48178649     0.06950
N2425       N  0.58214536  0.37873286  0.40171956    -0.27430
N2426       N  0.59368280  0.38149452  0.40551908    -0.35290
C2427       C  0.60204849  0.37643137  0.39765926     0.00910
C2428       C  0.59564696  0.37017509  0.38821742     0.06930
C2429       C  0.58293256  0.37186762  0.39100925    -0.06170
H2430       H  0.61215374  0.37694578  0.39900166     0.07600
H2431       H  0.57490159  0.36848330  0.38568443     0.08800
Cu2432     Cu  0.59848580  0.38984728  0.42217019     0.44170
Cu2433     Cu  0.56668801  0.38447808  0.41234494     0.41990
Cu2434     Cu  0.57648405  0.38971602  0.44586009     0.43880
N2435       N  0.60373141  0.38757258  0.44053037    -0.34820
N2436       N  0.59538955  0.38652964  0.44963912    -0.29070
C2437       C  0.60119425  0.38192916  0.45996031    -0.05180
C2438       C  0.61383710  0.38005758  0.45709525     0.07040
C2439       C  0.61501350  0.38365015  0.44464781     0.00840
H2440       H  0.59643077  0.37932414  0.46857758     0.08490
H2441       H  0.62307174  0.38216169  0.43860491     0.07570
N2442       N  0.55960379  0.39555743  0.43783280    -0.36270
N2443       N  0.55592588  0.39359527  0.42603046    -0.28450
C2444       C  0.54491394  0.39962723  0.42410139    -0.03690
C2445       C  0.54170378  0.40583008  0.43510018     0.04920
C2446       C  0.55113789  0.40295808  0.44360746     0.03010
H2447       H  0.53992212  0.39995392  0.41519359     0.08120
H2448       H  0.55195911  0.40624942  0.45323130     0.06950
N2449       N  0.65417135  0.15006654  0.63216552    -0.27430
N2450       N  0.64244124  0.15423476  0.63238570    -0.35290
C2451       C  0.63502151  0.14644204  0.62571790     0.00910
C2452       C  0.64242432  0.13686659  0.62113206     0.06930
C2453       C  0.65452072  0.13933480  0.62540251    -0.06170
H2454       H  0.62506554  0.14787934  0.62400112     0.07600
H2455       H  0.66295434  0.13396320  0.62344717     0.08800
Cu2456     Cu  0.63732181  0.17146116  0.63937706     0.44170
Cu2457     Cu  0.66891796  0.16029874  0.63999042     0.41990
Cu2458     Cu  0.66194495  0.19417917  0.63951587     0.43880
N2459       N  0.63415049  0.19031226  0.63697598    -0.34820
N2460       N  0.64327123  0.19868804  0.63568325    -0.29070
C2461       C  0.63829778  0.20940482  0.63103407    -0.05180
C2462       C  0.62543674  0.20759513  0.62959697     0.07040
C2463       C  0.62316811  0.19541063  0.63337667     0.00840
H2464       H  0.64368992  0.21761967  0.62832809     0.08490
H2465       H  0.61441396  0.19025175  0.63241374     0.07570
N2466       N  0.67838843  0.18631927  0.64673459    -0.36270
N2467       N  0.68070058  0.17408052  0.64739413    -0.28450
C2468       C  0.69153809  0.17226792  0.65377839    -0.03690
C2469       C  0.69634057  0.18391347  0.65708902     0.04920
C2470       C  0.68776751  0.19259606  0.65253874     0.03010
H2471       H  0.69556154  0.16315459  0.65593248     0.08120
H2472       H  0.68807748  0.20270829  0.65377398     0.06950
N2473       N  0.57637413  0.26880464  0.55067526    -0.27430
N2474       N  0.58209899  0.27035581  0.56164340    -0.35290
C2475       C  0.59375477  0.27480751  0.55985861     0.00910
C2476       C  0.59581624  0.27627737  0.54710429     0.06930
C2477       C  0.58446415  0.27245816  0.54148706    -0.06170
H2478       H  0.60055424  0.27616300  0.56736980     0.07600
H2479       H  0.58228309  0.27221713  0.53152810     0.08800
Cu2480     Cu  0.57599177  0.26337725  0.57852485     0.44170
Cu2481     Cu  0.55823566  0.26044286  0.54998999     0.41990
Cu2482     Cu  0.55735644  0.23653595  0.57501537     0.43880
N2483       N  0.57797374  0.24814566  0.59014800    -0.34820
N2484       N  0.57180477  0.23751178  0.58822148    -0.29070
C2485       C  0.57719755  0.22837816  0.59519550    -0.05180
C2486       C  0.58719590  0.23367222  0.60176087     0.07040
C2487       C  0.58745406  0.24616280  0.59830533     0.00840
H2488       H  0.57453896  0.21854077  0.59493100     0.08490
H2489       H  0.59467064  0.25300066  0.60062647     0.07570
N2490       N  0.54194543  0.24141359  0.56392061    -0.36270
N2491       N  0.54178324  0.25038318  0.55524378    -0.28450
C2492       C  0.52966623  0.25217284  0.55157202    -0.03690
C2493       C  0.52190464  0.24405963  0.55838839     0.04920
C2494       C  0.53014821  0.23726140  0.56588115     0.03010
H2495       H  0.52663927  0.25927247  0.54490755     0.08120
H2496       H  0.52773829  0.23006174  0.57266727     0.06950
N2497       N  0.68858645  0.96929425  0.66144696    -0.27430
N2498       N  0.68445821  0.97743583  0.65297276    -0.35290
C2499       C  0.68747998  0.97360087  0.64134733     0.00910
C2500       C  0.69403671  0.96251461  0.64230652     0.06930
C2501       C  0.69474365  0.96000743  0.65521765    -0.06170
H2502       H  0.68499864  0.97854373  0.63277233     0.07600
H2503       H  0.69927672  0.95203483  0.65967198     0.08800
Cu2504     Cu  0.67311717  0.99236978  0.65675225     0.44170
Cu2505     Cu  0.68438854  0.97212936  0.68079661     0.41990
Cu2506     Cu  0.65581222  0.99258166  0.68437563     0.43880
N2507       N  0.65496996  0.99844733  0.65715131    -0.34820
N2508       N  0.64784069  0.99802170  0.66729206    -0.29070
C2509       C  0.63585434  0.00069222  0.66389969    -0.05180
C2510       C  0.63559177  0.00243358  0.65091396     0.07040
C2511       C  0.64790669  0.00114953  0.64705657     0.00840
H2512       H  0.62792957  0.00098377  0.67027938     0.08490
H2513       H  0.65148170  0.00185275  0.63753850     0.07570
N2514       N  0.66782053  0.98725805  0.69902587    -0.36270
N2515       N  0.67779252  0.97977218  0.69808905    -0.28450
C2516       C  0.68312201  0.97872978  0.70966533    -0.03690
C2517       C  0.67636504  0.98611415  0.71811475     0.04920
C2518       C  0.66673001  0.99126247  0.71100764     0.03010
H2519       H  0.69147311  0.97325719  0.71173649     0.08120
H2520       H  0.65938151  0.99748482  0.71433010     0.06950
N2521       N  0.61271055  0.08242395  0.57960734    -0.27430
N2522       N  0.62027061  0.07564709  0.58679134    -0.35290
C2523       C  0.62767586  0.08324505  0.59361173     0.00910
C2524       C  0.62466807  0.09555180  0.59075879     0.06930
C2525       C  0.61510184  0.09473005  0.58177210    -0.06170
H2526       H  0.63397825  0.08002160  0.60097364     0.07600
H2527       H  0.60960422  0.10240773  0.57792428     0.08800
Cu2528     Cu  0.61754632  0.05700652  0.59047420     0.44170
Cu2529     Cu  0.59874352  0.07358708  0.56894635     0.41990
Cu2530     Cu  0.59062822  0.04079708  0.58004404     0.43880
N2531       N  0.61069802  0.04148191  0.59951738    -0.34820
N2532       N  0.60066000  0.03508644  0.59585753    -0.29070
C2533       C  0.59865639  0.02562054  0.60411199    -0.05180
C2534       C  0.60771200  0.02656057  0.61353077     0.07040
C2535       C  0.61518918  0.03662111  0.61024913     0.00840
H2536       H  0.59119794  0.01870193  0.60336509     0.08490
H2537       H  0.62342239  0.04007283  0.61522543     0.07570
N2538       N  0.58404137  0.04935478  0.56368757    -0.36270
N2539       N  0.58708704  0.06076139  0.55959543    -0.28450
C2540       C  0.58191228  0.06248060  0.54811859    -0.03690
C2541       C  0.57515127  0.05179092  0.54497537     0.04920
C2542       C  0.57674846  0.04366313  0.55500215     0.03010
H2543       H  0.58316510  0.07081521  0.54239019     0.08120
H2544       H  0.57331556  0.03409002  0.55570732     0.06950
N2545       N  0.83628407  0.86062514  0.66061532    -0.27430
N2546       N  0.82962091  0.86935565  0.65476018    -0.35290
C2547       C  0.83736929  0.87692876  0.64831660     0.00910
C2548       C  0.84951855  0.87273325  0.65006756     0.06930
C2549       C  0.84856294  0.86233225  0.65789603    -0.06170
H2550       H  0.83426522  0.88389683  0.64154509     0.07600
H2551       H  0.85603816  0.85589006  0.66047989     0.08800
Cu2552     Cu  0.81069884  0.86767321  0.65128681     0.44170
Cu2553     Cu  0.82753460  0.84594903  0.67001648     0.41990
Cu2554     Cu  0.79626991  0.83794325  0.65674592     0.43880
N2555       N  0.79600778  0.86086796  0.64064811    -0.34820
N2556       N  0.79070562  0.84972884  0.64227772    -0.29070
C2557       C  0.78226746  0.84774704  0.63295482    -0.05180
C2558       C  0.78268426  0.85803283  0.62496863     0.07040
C2559       C  0.79137613  0.86618078  0.63017272     0.00840
H2560       H  0.77656358  0.83936092  0.63189311     0.08490
H2561       H  0.79430629  0.87521965  0.62648309     0.07570
N2562       N  0.80337089  0.83116994  0.67359277    -0.36270
N2563       N  0.81437914  0.83433593  0.67858004    -0.28450
C2564       C  0.81498634  0.82984656  0.69040988    -0.03690
C2565       C  0.80379164  0.82367035  0.69303794     0.04920
C2566       C  0.79679359  0.82446213  0.68203872     0.03010
H2567       H  0.82276536  0.83150380  0.69682869     0.08120
H2568       H  0.78746202  0.82073931  0.68030639     0.06950
N2569       N  0.72153139  0.93568534  0.57754752    -0.27430
N2570       N  0.73011298  0.93170248  0.58565070    -0.35290
C2571       C  0.72703123  0.93508578  0.59737250     0.00910
C2572       C  0.71583814  0.94158507  0.59698188     0.06930
C2573       C  0.71253512  0.94188167  0.58418232    -0.06170
H2574       H  0.73236747  0.93253232  0.60570044     0.07600
H2575       H  0.70431787  0.94630565  0.58005243     0.08800
Cu2576     Cu  0.74420111  0.91951226  0.58149149     0.44170
Cu2577     Cu  0.72394605  0.93144870  0.55811874     0.41990
Cu2578     Cu  0.74478047  0.90286272  0.55364094     0.43880
N2579       N  0.75062564  0.90151793  0.58076365    -0.34820
N2580       N  0.75079941  0.89471045  0.57037726    -0.29070
C2581       C  0.75475313  0.88298252  0.57330284    -0.05180
C2582       C  0.75665169  0.88252913  0.58625215     0.07040
C2583       C  0.75406071  0.89444733  0.59060022     0.00840
H2584       H  0.75600811  0.87540226  0.56661052     0.08490
H2585       H  0.75466099  0.89777168  0.60023361     0.07570
N2586       N  0.73933665  0.91534894  0.53953332    -0.36270
N2587       N  0.73192909  0.92534797  0.54076092    -0.28450
C2588       C  0.73122447  0.93116898  0.52942005    -0.03690
C2589       C  0.73873337  0.92470123  0.52083981     0.04920
C2590       C  0.74354210  0.91468457  0.52761137     0.03010
H2591       H  0.72590722  0.93967011  0.52760948     0.08120
H2592       H  0.74969948  0.90736064  0.52411995     0.06950
N2593       N  0.13093816  0.83111982  0.83714986    -0.27430
N2594       N  0.13320734  0.84307049  0.83445966    -0.35290
C2595       C  0.12639162  0.85043918  0.84206636     0.00910
C2596       C  0.11941019  0.84283530  0.84989594     0.06930
C2597       C  0.12265992  0.83060698  0.84675654    -0.06170
H2598       H  0.12607096  0.86060932  0.84149033     0.07600
H2599       H  0.11879201  0.82202766  0.85066203     0.08800
Cu2600     Cu  0.14237553  0.84955541  0.81874008     0.44170
Cu2601     Cu  0.13783189  0.81644173  0.82624266     0.41990
Cu2602     Cu  0.14316926  0.82781748  0.79416132     0.43880
N2603       N  0.14063140  0.85502117  0.80027633    -0.34820
N2604       N  0.13974706  0.84672246  0.79105739    -0.29070
C2605       C  0.13498694  0.85243970  0.78078295    -0.05180
C2606       C  0.13296310  0.86499136  0.78370940     0.07040
C2607       C  0.13659775  0.86627197  0.79615384     0.00840
H2608       H  0.13230320  0.84764358  0.77217676     0.08490
H2609       H  0.13497888  0.87434753  0.80215820     0.07570
N2610       N  0.14812102  0.81010582  0.80058024    -0.36270
N2611       N  0.14607008  0.80577921  0.81207926    -0.28450
C2612       C  0.15106812  0.79416747  0.81303552    -0.03690
C2613       C  0.15649608  0.79103606  0.80156867     0.04920
C2614       C  0.15458655  0.80148625  0.79400989     0.03010
H2615       H  0.15102990  0.78856402  0.82155346     0.08120
H2616       H  0.15818154  0.80307311  0.78462470     0.06950
N2617       N  0.04983725  0.91065683  0.71855898    -0.27430
N2618       N  0.05984625  0.90324773  0.71853205    -0.35290
C2619       C  0.05668541  0.89175080  0.71441404     0.00910
C2620       C  0.04404327  0.89166674  0.71150431     0.06930
C2621       C  0.03990349  0.90386658  0.71417387    -0.06170
H2622       H  0.06306283  0.88380426  0.71414002     0.07600
H2623       H  0.03032171  0.90730378  0.71359586     0.08800
Cu2624     Cu  0.07682013  0.90733636  0.72668748     0.44170
Cu2625     Cu  0.05099792  0.92908255  0.72624857     0.41990
Cu2626     Cu  0.07799154  0.93132197  0.74889196     0.43880
N2627       N  0.08935343  0.90696172  0.74132839    -0.34820
N2628       N  0.08964174  0.91566517  0.75019877    -0.29070
C2629       C  0.09732607  0.91174462  0.75955995    -0.05180
C2630       C  0.10178465  0.89989141  0.75637382     0.07040
C2631       C  0.09661049  0.89722045  0.74474296     0.00840
H2632       H  0.09894090  0.91676618  0.76829568     0.08490
H2633       H  0.09747301  0.88853623  0.73947146     0.07570
N2634       N  0.06623726  0.94617985  0.74387689    -0.36270
N2635       N  0.05674784  0.94578239  0.73571378    -0.28450
C2636       C  0.05219517  0.95762629  0.73434290    -0.03690
C2637       C  0.05909965  0.96578445  0.74205319     0.04920
C2638       C  0.06789074  0.95807962  0.74785175     0.03010
H2639       H  0.04479533  0.96018115  0.72779121     0.08120
H2640       H  0.07525767  0.96097584  0.75431682     0.06950
N2641       N  0.01804911  0.82513956  0.68713190    -0.27430
N2642       N  0.02073247  0.83101755  0.67650182    -0.35290
C2643       C  0.02504037  0.84261900  0.67900380     0.00910
C2644       C  0.02509764  0.84447032  0.69189574     0.06930
C2645       C  0.02058217  0.83309888  0.69679896    -0.06170
H2646       H  0.02720913  0.84951760  0.67182513     0.07600
H2647       H  0.01849892  0.83103680  0.70654696     0.08800
Cu2648     Cu  0.01445400  0.82550994  0.65907572     0.44170
Cu2649     Cu  0.00964605  0.80705020  0.68692510     0.41990
Cu2650     Cu  0.98874945  0.80439998  0.65962731     0.43880
N2651       N  0.99952324  0.82695939  0.64684819    -0.34820
N2652       N  0.98955457  0.81952788  0.64735391    -0.29070
C2653       C  0.98034849  0.82446717  0.64013534    -0.05180
C2654       C  0.98479807  0.83559333  0.63496194     0.07040
C2655       C  0.99693479  0.83690431  0.63949677     0.00840
H2656       H  0.97084610  0.82079231  0.63952882     0.08490
H2657       H  0.00306562  0.84497241  0.63835365     0.07570
N2658       N  0.99236717  0.78970124  0.67194730    -0.36270
N2659       N  0.00031852  0.79021321  0.68159384    -0.28450
C2660       C  0.00133929  0.77850331  0.68653969    -0.03690
C2661       C  0.99356931  0.77037745  0.67971381     0.04920
C2662       C  0.98802415  0.77787824  0.67063529     0.03010
H2663       H  0.00736705  0.77605038  0.69441087     0.08120
H2664       H  0.98168173  0.77483198  0.66322169     0.06950
N2665       N  0.89858065  0.90176785  0.60241364    -0.27430
N2666       N  0.90278712  0.89008812  0.60190266    -0.35290
C2667       C  0.89545696  0.88266258  0.60898365     0.00910
C2668       C  0.88622496  0.89000900  0.61439833     0.06930
C2669       C  0.88831704  0.90207642  0.60982878    -0.06170
H2670       H  0.89746923  0.87288696  0.61104783     0.07600
H2671       H  0.88323483  0.91056285  0.61222561     0.08800
Cu2672     Cu  0.92042035  0.88537108  0.59581965     0.44170
Cu2673     Cu  0.90895163  0.91670600  0.59539098     0.41990
Cu2674     Cu  0.94284887  0.91024216  0.59860231     0.43880
N2675       N  0.93880408  0.88248819  0.60091460    -0.34820
N2676       N  0.94708277  0.89161399  0.60268382    -0.29070
C2677       C  0.95748817  0.88672769  0.60809422    -0.05180
C2678       C  0.95544008  0.87395394  0.61004694     0.07040
C2679       C  0.94354972  0.87163886  0.60525040     0.00840
H2680       H  0.96577139  0.89213612  0.61058891     0.08490
H2681       H  0.93837711  0.86285855  0.60561606     0.07570
N2682       N  0.93528096  0.92683839  0.59157661    -0.36270
N2683       N  0.92311091  0.92893280  0.58983087    -0.28450
C2684       C  0.92164879  0.93981835  0.58352920    -0.03690
C2685       C  0.93345711  0.94499943  0.58139405     0.04920
C2686       C  0.94184303  0.93643667  0.58661678     0.03010
H2687       H  0.91265957  0.94323472  0.58015369     0.08120
H2688       H  0.95202956  0.93686935  0.58640116     0.06950
C2689       C  0.96339982  0.85213606  0.61168968    -0.09300
C2690       C  0.96352072  0.86452944  0.61636963     0.06900
C2691       C  0.97063536  0.86725872  0.62731836    -0.03070
C2692       C  0.97766602  0.85771757  0.63308224    -0.07520
C2693       C  0.97744506  0.84535224  0.62839831     0.06010
C2694       C  0.97018880  0.84256940  0.61764529    -0.02540
Br2695     Br  0.96962894  0.82602045  0.61038887    -0.02240
H2696       H  0.95797782  0.84985203  0.60332098     0.09920
H2697       H  0.98301491  0.85987583  0.64153807     0.07940
Br2698     Br  0.97020947  0.88328854  0.63570565    -0.02670
C2699       C  0.02578007  0.86802651  0.69173040    -0.09300
C2700       C  0.02817873  0.85667716  0.69826009     0.06900
C2701       C  0.03449807  0.85737508  0.70998525    -0.03070
C2702       C  0.03877934  0.86904847  0.71451227    -0.07520
C2703       C  0.03694898  0.88022853  0.70763017     0.06010
C2704       C  0.03015257  0.87966670  0.69624575    -0.02540
Br2705     Br  0.02790870  0.89422519  0.68576748    -0.02240
H2706       H  0.02084603  0.86784413  0.68277894     0.09920
H2707       H  0.04412539  0.86931830  0.72323265     0.07940
Br2708     Br  0.03892384  0.84277098  0.71967172    -0.02670
C2709       C  0.11295395  0.87048269  0.77303829    -0.09300
C2710       C  0.12517702  0.87402381  0.77664477     0.06900
C2711       C  0.12942918  0.88633479  0.77414547    -0.03070
C2712       C  0.12152308  0.89484553  0.76788181    -0.07520
C2713       C  0.10938572  0.89121643  0.76406738     0.06010
C2714       C  0.10501527  0.87899222  0.76688819    -0.02540
Br2715     Br  0.08806029  0.87368291  0.76327217    -0.02240
H2716       H  0.10947099  0.86114848  0.77527254     0.09920
H2717       H  0.12497896  0.90418680  0.76566624     0.07940
Br2718     Br  0.14618693  0.89166400  0.77843764    -0.02670
C2719       C  0.86570445  0.88809750  0.64367810    -0.09300
C2720       C  0.86004963  0.87631131  0.64192227     0.06900
C2721       C  0.86321826  0.86900854  0.63133522    -0.03070
C2722       C  0.87174273  0.87371651  0.62252521    -0.07520
C2723       C  0.87721822  0.88567471  0.62405201     0.06010
C2724       C  0.87440142  0.89275865  0.63497004    -0.02540
Br2725     Br  0.88261334  0.90834560  0.63911152    -0.02240
H2726       H  0.86326236  0.89373584  0.65182797     0.09920
H2727       H  0.87389866  0.86809651  0.61427960     0.07940
Br2728     Br  0.85555698  0.85294661  0.62802825    -0.02670
C2729       C  0.76229096  0.86256847  0.61476271    -0.09300
C2730       C  0.77526106  0.86051657  0.61356114     0.06900
C2731       C  0.78128305  0.86327108  0.60206964    -0.03070
C2732       C  0.77453034  0.86908961  0.59235959    -0.07520
C2733       C  0.76190435  0.87246234  0.59412491     0.06010
C2734       C  0.75560695  0.86865197  0.60517148    -0.02540
Br2735     Br  0.73818675  0.87259266  0.60802664    -0.02240
H2736       H  0.75760529  0.86046795  0.62358032     0.09920
H2737       H  0.77945626  0.87205529  0.58393518     0.07940
Br2738     Br  0.79893057  0.86017286  0.59961466    -0.02670
C2739       C  0.69188224  0.94997626  0.62251627    -0.09300
C2740       C  0.69972351  0.95591366  0.63145434     0.06900
C2741       C  0.71258925  0.95738376  0.62875716    -0.03070
C2742       C  0.71744416  0.95293714  0.61735408    -0.07520
C2743       C  0.70968180  0.94700324  0.60833518     0.06010
C2744       C  0.69677260  0.94538122  0.61108996    -0.02540
Br2745     Br  0.68561927  0.93633327  0.60005348    -0.02240
H2746       H  0.68189678  0.94898512  0.62441004     0.09920
H2747       H  0.72739099  0.95423595  0.61547152     0.07940
Br2748     Br  0.72374965  0.96613271  0.64002739    -0.02670
C2749       C  0.61622201  0.00654500  0.62144570    -0.09300
C2750       C  0.61049617  0.01810354  0.62409608     0.06900
C2751       C  0.61078392  0.02283875  0.63649677    -0.03070
C2752       C  0.61793467  0.01671627  0.64573524    -0.07520
C2753       C  0.62501565  0.00603122  0.64264222     0.06010
C2754       C  0.62351282  0.00049190  0.63061123    -0.02540
Br2755     Br  0.63184643  0.98513701  0.62592175    -0.02240
H2756       H  0.61602501  0.00283376  0.61192499     0.09920
H2757       H  0.61890894  0.02098854  0.65496471     0.07940
Br2758     Br  0.60260021  0.03834146  0.64083544    -0.02670
C2759       C  0.63653932  0.12805189  0.60025984    -0.09300
C2760       C  0.63810620  0.12635613  0.61328807     0.06900
C2761       C  0.63484376  0.11483663  0.61883070    -0.03070
C2762       C  0.63025022  0.10508250  0.61131910    -0.07520
C2763       C  0.62883265  0.10657654  0.59820669     0.06010
C2764       C  0.63197001  0.11823447  0.59266577    -0.02540
Br2765     Br  0.63097630  0.12103086  0.57482498    -0.02240
H2766       H  0.63896799  0.13699680  0.59598988     0.09920
H2767       H  0.62771433  0.09628197  0.61580623     0.07940
Br2768     Br  0.63629423  0.11211128  0.63666612    -0.02670
C2769       C  0.61707680  0.21595977  0.60951634    -0.09300
C2770       C  0.61638038  0.21542464  0.62269916     0.06900
C2771       C  0.60609859  0.22094150  0.62894128    -0.03070
C2772       C  0.59660438  0.22686147  0.62196363    -0.07520
C2773       C  0.59713884  0.22712297  0.60877872     0.06010
C2774       C  0.60750108  0.22173396  0.60252024    -0.02540
Br2775     Br  0.60885946  0.22192158  0.58448111    -0.02240
H2776       H  0.62486943  0.21152296  0.60465120     0.09920
H2777       H  0.58874426  0.23117475  0.62681736     0.07940
Br2778     Br  0.60471013  0.22057523  0.64695896    -0.02670
C2779       C  0.62545004  0.28039712  0.52661589    -0.09300
C2780       C  0.63212619  0.28941597  0.53370552     0.06900
C2781       C  0.62674066  0.29392671  0.54495525    -0.03070
C2782       C  0.61485403  0.28976265  0.54872486    -0.07520
C2783       C  0.60796720  0.28088567  0.54164836     0.06010
C2784       C  0.61347668  0.27609048  0.53048874    -0.02540
Br2785     Br  0.60555284  0.26327441  0.52048504    -0.02240
H2786       H  0.62943181  0.27689200  0.51790530     0.09920
H2787       H  0.61098568  0.29353837  0.55737222     0.07940
Br2788     Br  0.63543067  0.30545998  0.55593724    -0.02670
C2789       C  0.61928022  0.36193207  0.47079563    -0.09300
C2790       C  0.62322854  0.37276805  0.46434981     0.06900
C2791       C  0.63618216  0.37586565  0.46420348    -0.03070
C2792       C  0.64488568  0.36810590  0.47035548    -0.07520
C2793       C  0.64090507  0.35733952  0.47684097     0.06010
C2794       C  0.62797848  0.35419039  0.47695216    -0.02540
Br2795     Br  0.62173132  0.33895009  0.48444402    -0.02240
H2796       H  0.60942740  0.35922906  0.47070817     0.09920
H2797       H  0.65477848  0.37065883  0.47034189     0.07940
Br2798     Br  0.64251457  0.39093915  0.45648311    -0.02670
C2799       C  0.60551233  0.34588936  0.36358844    -0.09300
C2800       C  0.61680671  0.35134720  0.35932368     0.06900
C2801       C  0.62072024  0.36296632  0.36444671    -0.03070
C2802       C  0.61318733  0.36909298  0.37319564    -0.07520
C2803       C  0.60193717  0.36371617  0.37758670     0.06010
C2804       C  0.59810106  0.35192361  0.37273235    -0.02540
Br2805     Br  0.58350964  0.34316021  0.37878842    -0.02240
H2806       H  0.60243967  0.33691361  0.35980296     0.09920
H2807       H  0.61641210  0.37805206  0.37688786     0.07940
Br2808     Br  0.63683638  0.37052293  0.36101471    -0.02670
C2809       C  0.61124196  0.36846900  0.26955316    -0.09300
C2810       C  0.62417657  0.36986467  0.27194850     0.06900
C2811       C  0.63027726  0.38115699  0.26855320    -0.03070
C2812       C  0.62341242  0.39085457  0.26284088    -0.07520
C2813       C  0.61049123  0.38945647  0.26049411     0.06010
C2814       C  0.60436984  0.37819063  0.26391594    -0.02540
Br2815     Br  0.58657718  0.37584649  0.26147281    -0.02240
H2816       H  0.60640699  0.35993543  0.27238630     0.09920
H2817       H  0.62821309  0.39939372  0.25998480     0.07940
Br2818     Br  0.64806989  0.38349682  0.27092391    -0.02670
C2819       C  0.54251396  0.36243123  0.18878938    -0.09300
C2820       C  0.53325435  0.35576409  0.19550653     0.06900
C2821       C  0.52826138  0.36132938  0.20654306    -0.03070
C2822       C  0.53274182  0.37316474  0.21065998    -0.07520
C2823       C  0.54213299  0.37963438  0.20392602     0.06010
C2824       C  0.54685081  0.37418588  0.19278533    -0.02540
Br2825     Br  0.55883841  0.38263986  0.18218358    -0.02240
H2826       H  0.54641497  0.35850926  0.18022072     0.09920
H2827       H  0.52905414  0.37720787  0.21926744     0.07940
Br2828     Br  0.51492556  0.35367305  0.21598644    -0.02670
C2829       C  0.47004964  0.36680166  0.12636653    -0.09300
C2830       C  0.46579775  0.36442123  0.11405405     0.06900
C2831       C  0.46808685  0.35255074  0.10855410    -0.03070
C2832       C  0.47429294  0.34320299  0.11547648    -0.07520
C2833       C  0.47841452  0.34555653  0.12780465     0.06010
C2834       C  0.47629275  0.35746954  0.13326887    -0.02540
Br2835     Br  0.48109987  0.36122212  0.15033773    -0.02240
H2836       H  0.46817962  0.37581984  0.13076843     0.09920
H2837       H  0.47614001  0.33415579  0.11113783     0.07940
Br2838     Br  0.46365047  0.34888846  0.09138443    -0.02670
C2839       C  0.11455460  0.50939569  0.12177585    -0.09300
C2840       C  0.11312313  0.52245914  0.12280293     0.06900
C2841       C  0.11625739  0.52852593  0.13422217    -0.03070
C2842       C  0.12207950  0.52172075  0.14388513    -0.07520
C2843       C  0.12499478  0.50898045  0.14217534     0.06010
C2844       C  0.12057696  0.50264095  0.13134880    -0.02540
Br2845     Br  0.12355022  0.48499818  0.12877941    -0.02240
H2846       H  0.11205637  0.50463888  0.11307621     0.09920
H2847       H  0.12539550  0.52665306  0.15220790     0.07940
Br2848     Br  0.11357402  0.54623363  0.13671432    -0.02670
C2849       C  0.38327964  0.37328621  0.13091780    -0.09300
C2850       C  0.38080297  0.38547004  0.12621306     0.06900
C2851       C  0.36946613  0.39149532  0.12986475    -0.03070
C2852       C  0.36074711  0.38502299  0.13734261    -0.07520
C2853       C  0.36298920  0.37261372  0.14120121     0.06010
C2854       C  0.37441360  0.36680104  0.13811827    -0.02540
Br2855     Br  0.37769128  0.34953092  0.14234704    -0.02240
H2856       H  0.39195418  0.36847641  0.12861205     0.09920
H2857       H  0.35176838  0.38939528  0.13945392     0.07940
Br2858     Br  0.36430548  0.40779096  0.12398517    -0.02670
C2859       C  0.20131275  0.43787668  0.11660294    -0.09300
C2860       C  0.20783405  0.44446748  0.10705188     0.06900
C2861       C  0.21166803  0.45698822  0.10965301    -0.03070
C2862       C  0.20849589  0.46264192  0.12117361    -0.07520
C2863       C  0.20185582  0.45608213  0.13054697     0.06010
C2864       C  0.19839952  0.44349714  0.12822178    -0.02540
Br2865     Br  0.18882327  0.43385533  0.14011929    -0.02240
H2866       H  0.19817471  0.42830694  0.11497823     0.09920
H2867       H  0.21118863  0.47235446  0.12281975     0.07940
Br2868     Br  0.22184321  0.46690440  0.09850661    -0.02670
C2869       C  0.27065343  0.38132717  0.10081688    -0.09300
C2870       C  0.26067735  0.37480592  0.09507089     0.06900
C2871       C  0.25731375  0.36276757  0.09952457    -0.03070
C2872       C  0.26407129  0.35733685  0.10948063    -0.07520
C2873       C  0.27416039  0.36379091  0.11507912     0.06010
C2874       C  0.27733527  0.37595740  0.11082278    -0.02540
Br2875     Br  0.29027717  0.38586396  0.11877954    -0.02240
H2876       H  0.27305604  0.39074787  0.09770803     0.09920
H2877       H  0.26169269  0.34791967  0.11260741     0.07940
Br2878     Br  0.24407269  0.35311358  0.09182020    -0.02670
C2879       C  0.11218670  0.84400874  0.87196283    -0.09300
C2880       C  0.11031607  0.84725995  0.85930967     0.06900
C2881       C  0.10091320  0.85610418  0.85610124    -0.03070
C2882       C  0.09435879  0.86238298  0.86561083    -0.07520
C2883       C  0.09717963  0.86005670  0.87829042     0.06010
C2884       C  0.10574080  0.85040249  0.88147430    -0.02540
Br2885     Br  0.10923131  0.84589123  0.89866157    -0.02240
H2886       H  0.11926587  0.83709708  0.87449389     0.09920
H2887       H  0.08766207  0.86967293  0.86309980     0.07940
Br2888     Br  0.09691227  0.86019833  0.83891424    -0.02670
C2889       C  0.12144932  0.86243696  0.96191903    -0.09300
C2890       C  0.12380588  0.87538206  0.96091915     0.06900
C2891       C  0.13521982  0.88037090  0.96551225    -0.03070
C2892       C  0.14402271  0.87242131  0.97129781    -0.07520
C2893       C  0.14155314  0.85951144  0.97251368     0.06010
C2894       C  0.13024891  0.85447849  0.96762298    -0.02540
Br2895     Br  0.12663391  0.83675401  0.96807508    -0.02240
H2896       H  0.11282587  0.85849121  0.95807117     0.09920
H2897       H  0.15261901  0.87636916  0.97518376     0.07940
Br2898     Br  0.13883574  0.89803969  0.96458474    -0.02670
C2899       C  0.12603593  0.62221870  0.11338107    -0.09300
C2900       C  0.13905635  0.62485972  0.11387573     0.06900
C2901       C  0.14709587  0.61859133  0.10528923    -0.03070
C2902       C  0.14204832  0.60978006  0.09684803    -0.07520
C2903       C  0.12907104  0.60728403  0.09640690     0.06010
C2904       C  0.12100020  0.61368402  0.10471808    -0.02540
Br2905     Br  0.10317534  0.61057502  0.10547549    -0.02240
H2906       H  0.11962868  0.62668390  0.11992073     0.09920
H2907       H  0.14832242  0.60482447  0.09051337     0.07940
Br2908     Br  0.16481905  0.62183837  0.10374953    -0.02670
C2909       C  0.12259216  0.78175124  0.02317966    -0.09300
C2910       C  0.13232021  0.78588970  0.03114825     0.06900
C2911       C  0.13033442  0.78587438  0.04418012    -0.03070
C2912       C  0.11863630  0.78226666  0.04903107    -0.07520
C2913       C  0.10853171  0.77832303  0.04117717     0.06010
C2914       C  0.11089134  0.77778490  0.02798233    -0.02540
Br2915     Br  0.09909673  0.77185028  0.01560503    -0.02240
H2916       H  0.12399983  0.78195701  0.01306456     0.09920
H2917       H  0.11753300  0.78302223  0.05911326     0.07940
Br2918     Br  0.14309552  0.79162004  0.05571277    -0.02670
C2919       C  0.10856289  0.72765197  0.10531836    -0.09300
C2920       C  0.09609595  0.72664988  0.10963930     0.06900
C2921       C  0.09344083  0.71879868  0.11995249    -0.03070
C2922       C  0.10320543  0.71216281  0.12579119    -0.07520
C2923       C  0.11569130  0.71306536  0.12145288     0.06010
C2924       C  0.11831997  0.72083270  0.11099141    -0.02540
Br2925     Br  0.13459225  0.72165627  0.10314746    -0.02240
H2926       H  0.11066993  0.73349945  0.09722210     0.09920
H2927       H  0.10100553  0.70623653  0.13379874     0.07940
Br2928     Br  0.07680247  0.71722800  0.12681406    -0.02670
C2929       C  0.86944151  0.97664219  0.12049631    -0.09300
C2930       C  0.87397393  0.96441177  0.12237341     0.06900
C2931       C  0.87320463  0.95889059  0.13441813    -0.03070
C2932       C  0.86673233  0.96508840  0.14404217    -0.07520
C2933       C  0.86079550  0.97662081  0.14166158     0.06010
C2934       C  0.86276984  0.98274617  0.13004003    -0.02540
Br2935     Br  0.85565587  0.99897757  0.12643684    -0.02240
H2936       H  0.87004429  0.98095984  0.11126137     0.09920
H2937       H  0.86530794  0.96034091  0.15296497     0.07940
Br2938     Br  0.87985037  0.94241753  0.13776300    -0.02670
C2939       C  0.79272006  0.03270158  0.10775771    -0.09300
C2940       C  0.78104988  0.03882636  0.10731814     0.06900
C2941       C  0.77359018  0.03917017  0.11832688    -0.03070
C2942       C  0.77770361  0.03314654  0.12939258    -0.07520
C2943       C  0.78929195  0.02679597  0.12978536     0.06010
C2944       C  0.79697063  0.02689935  0.11886260    -0.02540
Br2945     Br  0.81385179  0.02033081  0.11874929    -0.02240
H2946       H  0.79877041  0.03282805  0.09954729     0.09920
H2947       H  0.77167853  0.03315701  0.13761678     0.07940
Br2948     Br  0.75744656  0.04730295  0.11857289    -0.02670
C2949       C  0.71682323  0.11025113  0.09475714    -0.09300
C2950       C  0.72970974  0.11321033  0.09419206     0.06900
C2951       C  0.73490927  0.12128991  0.10344387    -0.03070
C2952       C  0.72756421  0.12515252  0.11365422    -0.07520
C2953       C  0.71500541  0.12122572  0.11477531     0.06010
C2954       C  0.70943834  0.11426579  0.10486049    -0.02540
Br2955     Br  0.69176207  0.11028821  0.10425812    -0.02240
H2956       H  0.71253642  0.10434246  0.08760569     0.09920
H2957       H  0.73183880  0.13085549  0.12098805     0.07940
Br2958     Br  0.75186334  0.12757882  0.10260600    -0.02670
C2959       C  0.86282223  0.61075656  0.97585489    -0.09300
C2960       C  0.86591608  0.61491586  0.96373499     0.06900
C2961       C  0.85917936  0.62504527  0.95836135    -0.03070
C2962       C  0.84935551  0.63065698  0.96506416    -0.07520
C2963       C  0.84615846  0.62644360  0.97717335     0.06010
C2964       C  0.85298146  0.61636039  0.98256199    -0.02540
Br2965     Br  0.84877511  0.60923570  0.99863458    -0.02240
H2966       H  0.86784302  0.60287427  0.97997031     0.09920
H2967       H  0.84443614  0.63859260  0.96092923     0.07940
Br2968     Br  0.86353178  0.63220593  0.94231850    -0.02670
C2969       C  0.98770961  0.73183090  0.05608460    -0.09300
C2970       C  0.98041311  0.74284272  0.05674172     0.06900
C2971       C  0.98666803  0.75461300  0.05680981    -0.03070
C2972       C  0.99989668  0.75516513  0.05664802    -0.07520
C2973       C  0.00719250  0.74414198  0.05663577     0.06010
C2974       C  0.00094664  0.73238338  0.05614290    -0.02540
Br2975     Br  0.01000180  0.71677300  0.05516035    -0.02240
H2976       H  0.98310438  0.72271992  0.05591584     0.09920
H2977       H  0.00450765  0.76427067  0.05692432     0.07940
Br2978     Br  0.97766965  0.77028981  0.05672292    -0.02670
C2979       C  0.87600153  0.70980907  0.03065686    -0.09300
C2980       C  0.88086786  0.70417712  0.04165696     0.06900
C2981       C  0.87390462  0.69437922  0.04737812    -0.03070
C2982       C  0.86232408  0.69066461  0.04233374    -0.07520
C2983       C  0.85735469  0.69629487  0.03144376     0.06010
C2984       C  0.86434514  0.70593332  0.02551866    -0.02540
Br2985     Br  0.85888046  0.71344347  0.01000715    -0.02240
H2986       H  0.88121447  0.71730435  0.02610856     0.09920
H2987       H  0.85725930  0.68303302  0.04683728     0.07940
Br2988     Br  0.88003110  0.68482445  0.06152421    -0.02670
C2989       C  0.86859861  0.87289631  0.10662956    -0.09300
C2990       C  0.86016256  0.87691626  0.09728596     0.06900
C2991       C  0.84773593  0.87230745  0.09725417    -0.03070
C2992       C  0.84390495  0.86376900  0.10650628    -0.07520
C2993       C  0.85224007  0.85988070  0.11607827     0.06010
C2994       C  0.86472227  0.86462517  0.11611083    -0.02540
Br2995     Br  0.87657913  0.86147283  0.12947873    -0.02240
H2996       H  0.87803898  0.87679948  0.10698687     0.09920
H2997       H  0.83435766  0.86016634  0.10617162     0.07940
Br2998     Br  0.83569509  0.87741974  0.08472178    -0.02670
C2999       C  0.87048677  0.76969838  0.11025661    -0.09300
C3000       C  0.87242699  0.77281293  0.12296492     0.06900
C3001       C  0.88397615  0.76972105  0.12881624    -0.03070
C3002       C  0.89343953  0.76377341  0.12188434    -0.07520
C3003       C  0.89152525  0.76077744  0.10917689     0.06010
C3004       C  0.87995379  0.76374696  0.10333368    -0.02540
Br3005     Br  0.87686122  0.76033697  0.08581353    -0.02240
H3006       H  0.86173540  0.77223224  0.10560480     0.09920
H3007       H  0.90220653  0.76122920  0.12648924     0.07940
Br3008     Br  0.88701371  0.77273871  0.14641019    -0.02670
C3009       C  0.86847421  0.62309863  0.86416425    -0.09300
C3010       C  0.87314582  0.63488743  0.86041993     0.06900
C3011       C  0.88469020  0.63917023  0.86556669    -0.03070
C3012       C  0.89109880  0.63169960  0.87443250    -0.07520
C3013       C  0.88632530  0.61988775  0.87803644     0.06010
C3014       C  0.87506715  0.61548017  0.87249846    -0.02540
Br3015     Br  0.86864583  0.59868735  0.87483154    -0.02240
H3016       H  0.85971714  0.61951961  0.86028703     0.09920
H3017       H  0.89980173  0.63515190  0.87855040     0.07940
Br3018     Br  0.89266879  0.65451959  0.86036308    -0.02670
C3019       C  0.86037800  0.60993770  0.76277246    -0.09300
C3020       C  0.86555834  0.61354336  0.77437739     0.06900
C3021       C  0.87638664  0.60735584  0.77898779    -0.03070
C3022       C  0.88172879  0.59756050  0.77203701    -0.07520
C3023       C  0.87651735  0.59386682  0.76043374     0.06010
C3024       C  0.86570857  0.60012206  0.75582000    -0.02540
Br3025     Br  0.85732043  0.59515417  0.74054343    -0.02240
H3026       H  0.85195476  0.61454766  0.75927431     0.09920
H3027       H  0.89020950  0.59306378  0.77554554     0.07940
Br3028     Br  0.88476676  0.61244695  0.79425402    -0.02670
C3029       C  0.99957383  0.73500429  0.67940167    -0.09300
C3030       C  0.98721473  0.73017709  0.67972060     0.06900
C3031       C  0.97709450  0.73869163  0.68093772    -0.03070
C3032       C  0.97943052  0.75170624  0.68142984    -0.07520
C3033       C  0.99177144  0.75653447  0.68092323     0.06010
C3034       C  0.00191852  0.74800761  0.68006286    -0.02540
Br3035     Br  0.01904483  0.75360163  0.67844680    -0.02240
H3036       H  0.00746257  0.72862238  0.67831312     0.09920
H3037       H  0.97151793  0.75813522  0.68186513     0.07940
Br3038     Br  0.95985686  0.73321530  0.68065329    -0.02670
C3039       C  0.96012985  0.61720932  0.69278579    -0.09300
C3040       C  0.95755034  0.62840482  0.69949190     0.06900
C3041       C  0.94864364  0.62787924  0.70935006    -0.03070
C3042       C  0.94267859  0.61641841  0.71226395    -0.07520
C3043       C  0.94555847  0.60524536  0.70572652     0.06010
C3044       C  0.95433065  0.60576207  0.69584902    -0.02540
Br3045     Br  0.95816956  0.59130223  0.68570562    -0.02240
H3046       H  0.96666172  0.61730635  0.68497279     0.09920
H3047       H  0.93591413  0.61617817  0.71989026     0.07940
Br3048     Br  0.94482136  0.64210811  0.71980190    -0.02670
C3049       C  0.02271692  0.64351432  0.62406565    -0.09300
C3050       C  0.01020239  0.64211421  0.62796944     0.06900
C3051       C  0.00334780  0.63131593  0.62435837    -0.03070
C3052       C  0.00941809  0.62154465  0.61799003    -0.07520
C3053       C  0.02233321  0.62232982  0.61545093     0.06010
C3054       C  0.02886030  0.63363726  0.61792919    -0.02540
Br3055     Br  0.04640121  0.63562284  0.61399178    -0.02240
H3056       H  0.02804916  0.65178526  0.62682292     0.09920
H3057       H  0.00433410  0.61288920  0.61607908     0.07940
Br3058     Br  0.98601115  0.62904296  0.62895230    -0.02670
C3059       C  0.11886314  0.60367118  0.64801639    -0.09300
C3060       C  0.12436401  0.61244894  0.63984111     0.06900
C3061       C  0.12030419  0.61296199  0.62714877    -0.03070
C3062       C  0.11133305  0.60438500  0.62272944    -0.07520
C3063       C  0.10606050  0.59541043  0.63082251     0.06010
C3064       C  0.10974941  0.59519303  0.64360491    -0.02540
Br3065     Br  0.10320640  0.58298773  0.65520471    -0.02240
H3066       H  0.12201917  0.60306198  0.65772100     0.09920
H3067       H  0.10819671  0.60496104  0.61301112     0.07940
Br3068     Br  0.12611653  0.62561557  0.61557995    -0.02670
C3069       C  0.21283897  0.62646392  0.60125791    -0.09300
C3070       C  0.21745460  0.62663676  0.61369919     0.06900
C3071       C  0.22861242  0.62003538  0.61657785    -0.03070
C3072       C  0.23412066  0.61240562  0.60736808    -0.07520
C3073       C  0.22865725  0.61119450  0.59533373     0.06010
C3074       C  0.21821972  0.61871465  0.59212664    -0.02540
Br3075     Br  0.20950967  0.61721501  0.57629603    -0.02240
H3076       H  0.20425304  0.63149506  0.59893202     0.09920
H3077       H  0.24219874  0.60668352  0.60989538     0.07940
Br3078     Br  0.23571497  0.61948714  0.63323175    -0.02670
C3079       C  0.28695750  0.54336062  0.62987331    -0.09300
C3080       C  0.29139165  0.53103794  0.63128136     0.06900
C3081       C  0.29058426  0.52267779  0.62095179    -0.03070
C3082       C  0.28492218  0.52657411  0.60961030    -0.07520
C3083       C  0.28012875  0.53881874  0.60832025     0.06010
C3084       C  0.28149319  0.54733676  0.61851366    -0.02540
Br3085     Br  0.27687675  0.56478490  0.61722592    -0.02240
H3086       H  0.28805127  0.55002463  0.63754206     0.09920
H3087       H  0.28393306  0.51991846  0.60192513     0.07940
Br3088     Br  0.29678149  0.50574454  0.62204659    -0.02670
C3089       C  0.36919985  0.48190009  0.63304237    -0.09300
C3090       C  0.35918077  0.47595291  0.63934613     0.06900
C3091       C  0.35574077  0.46358155  0.63584165    -0.03070
C3092       C  0.36274797  0.45723533  0.62672591    -0.07520
C3093       C  0.37291069  0.46310407  0.62068015     0.06010
C3094       C  0.37601087  0.47560155  0.62371573    -0.02540
Br3095     Br  0.38986690  0.48417618  0.61592222    -0.02240
H3096       H  0.37186879  0.49144196  0.63550378     0.09920
H3097       H  0.36013181  0.44768937  0.62419203     0.07940
Br3098     Br  0.34102764  0.45514280  0.64214624    -0.02670
C3099       C  0.48784515  0.24091473  0.56960437    -0.09300
C3100       C  0.48101291  0.24111658  0.55823053     0.06900
C3101       C  0.48776097  0.24264980  0.54686889    -0.03070
C3102       C  0.50101308  0.24374586  0.54708835    -0.07520
C3103       C  0.50782370  0.24333050  0.55849794     0.06010
C3104       C  0.50098890  0.24208965  0.56986822    -0.02540
Br3105     Br  0.50870225  0.24308165  0.58626833    -0.02240
H3106       H  0.48290034  0.23995613  0.57847238     0.09920
H3107       H  0.50602315  0.24488537  0.53828315     0.07940
Br3108     Br  0.47937829  0.24423310  0.53090879    -0.02670
C3109       C  0.34475930  0.36991667  0.60811556    -0.09300
C3110       C  0.34952856  0.35837794  0.61239588     0.06900
C3111       C  0.36263299  0.35611976  0.61198698    -0.03070
C3112       C  0.37068337  0.36517161  0.60690493    -0.07520
C3113       C  0.36587466  0.37648914  0.60220937     0.06010
C3114       C  0.35286576  0.37899468  0.60303787    -0.02540
Br3115     Br  0.34582003  0.39459152  0.59723495    -0.02240
H3116       H  0.33470653  0.37169935  0.60836025     0.09920
H3117       H  0.38073396  0.36337415  0.60660487     0.07940
Br3118     Br  0.37007005  0.34094349  0.61846323    -0.02670
C3119       C  0.38925973  0.25885993  0.62217237    -0.09300
C3120       C  0.39267088  0.25852970  0.60943896     0.06900
C3121       C  0.38515653  0.26476164  0.60046833    -0.03070
C3122       C  0.37430354  0.27105074  0.60428158    -0.07520
C3123       C  0.37073088  0.27145861  0.61703029     0.06010
C3124       C  0.37848478  0.26540925  0.62608763    -0.02540
Br3125     Br  0.37563197  0.26634489  0.64391703    -0.02240
H3126       H  0.39504394  0.25405440  0.62909779     0.09920
H3127       H  0.36853845  0.27552268  0.59712865     0.07940
Br3128     Br  0.38902827  0.26460960  0.58279086    -0.02670
C3129       C  0.36249879  0.20562160  0.52698410    -0.09300
C3130       C  0.35593625  0.19645983  0.53394612     0.06900
C3131       C  0.36126707  0.19211658  0.54532538    -0.03070
C3132       C  0.37299138  0.19657716  0.54934246    -0.07520
C3133       C  0.37976078  0.20561313  0.54241316     0.06010
C3134       C  0.37430833  0.21023155  0.53111478    -0.02540
Br3135     Br  0.38208959  0.22319681  0.52126178    -0.02240
H3136       H  0.35855457  0.20901887  0.51818757     0.09920
H3137       H  0.37681977  0.19290356  0.55807332     0.07940
Br3138     Br  0.35269665  0.18046116  0.55620257    -0.02670
C3139       C  0.36204569  0.11039203  0.47686470    -0.09300
C3140       C  0.36522184  0.11520027  0.46499885     0.06900
C3141       C  0.35907153  0.12606616  0.46045744    -0.03070
C3142       C  0.34949744  0.13158090  0.46754141    -0.07520
C3143       C  0.34602581  0.12658101  0.47925979     0.06010
C3144       C  0.35249278  0.11597306  0.48400648    -0.02540
Br3145     Br  0.34806294  0.10813905  0.49967800    -0.02240
H3146       H  0.36668185  0.10200015  0.48037311     0.09920
H3147       H  0.34490752  0.13997417  0.46397369     0.07940
Br3148     Br  0.36382766  0.13422957  0.44501821    -0.02670
C3149       C  0.48226475  0.23661939  0.18035207    -0.09300
C3150       C  0.49315754  0.22920168  0.17921234     0.06900
C3151       C  0.50500516  0.23530462  0.17881630    -0.03070
C3152       C  0.50575219  0.24851621  0.17923207    -0.07520
C3153       C  0.49482401  0.25594835  0.17974741     0.06010
C3154       C  0.48299660  0.24984425  0.18047150    -0.02540
Br3155     Br  0.46754473  0.25911408  0.18190724    -0.02240
H3156       H  0.47309990  0.23212417  0.18072079     0.09920
H3157       H  0.51490925  0.25301222  0.17871912     0.07940
Br3158     Br  0.52051921  0.22605725  0.17798340    -0.02670
C3159       C  0.61194836  0.10839619  0.12786035    -0.09300
C3160       C  0.61189194  0.09531118  0.12599801     0.06900
C3161       C  0.62202603  0.08807221  0.13046647    -0.03070
C3162       C  0.63173510  0.09389948  0.13720359    -0.07520
C3163       C  0.63168441  0.10697121  0.13944590     0.06010
C3164       C  0.62181914  0.11431490  0.13431836    -0.02540
Br3165     Br  0.62152172  0.13238988  0.13489150    -0.02240
H3166       H  0.60423126  0.11404972  0.12425455     0.09920
H3167       H  0.63923274  0.08807945  0.14096311     0.07940
Br3168     Br  0.62260322  0.07011327  0.12853617    -0.02670
C3169       C  0.52310540  0.14400157  0.12198311    -0.09300
C3170       C  0.50991687  0.14296896  0.12205024     0.06900
C3171       C  0.50421032  0.13271276  0.11568793    -0.03070
C3172       C  0.51166780  0.12293563  0.11101321    -0.07520
C3173       C  0.52479739  0.12329514  0.11233651     0.06010
C3174       C  0.53055699  0.13433553  0.11706559    -0.02540
Br3175     Br  0.54850189  0.13684173  0.11692462    -0.02240
H3176       H  0.52769574  0.15199186  0.12638696     0.09920
H3177       H  0.50713307  0.11473005  0.10694373     0.07940
Br3178     Br  0.48632830  0.13143904  0.11304529    -0.02670
C3179       C  0.37034435  0.13153826  0.36368179    -0.09300
C3180       C  0.37867742  0.14090734  0.35961026     0.06900
C3181       C  0.39105534  0.14116691  0.36439090    -0.03070
C3182       C  0.39490634  0.13216686  0.37321234    -0.07520
C3183       C  0.38665296  0.12261515  0.37722037     0.06010
C3184       C  0.37425127  0.12228672  0.37220920    -0.02540
Br3185     Br  0.36252651  0.10883912  0.37533691    -0.02240
H3186       H  0.36094908  0.13099972  0.35966243     0.09920
H3187       H  0.40438878  0.13271759  0.37698133     0.07940
Br3188     Br  0.40296961  0.15375289  0.35926091    -0.02670
C3189       C  0.44389272  0.11775375  0.21342212    -0.09300
C3190       C  0.44937837  0.10601147  0.21043828     0.06900
C3191       C  0.46075512  0.10598604  0.20357568    -0.03070
C3192       C  0.46599360  0.11739259  0.19944774    -0.07520
C3193       C  0.46010954  0.12904235  0.20181050     0.06010
C3194       C  0.44906586  0.12914936  0.20913131    -0.02540
Br3195     Br  0.43979112  0.14432465  0.21228252    -0.02240
H3196       H  0.43521073  0.11809178  0.21875063     0.09920
H3197       H  0.47444865  0.11709748  0.19375475     0.07940
Br3198     Br  0.46887092  0.09080609  0.19809762    -0.02670
C3199       C  0.36876910  0.10295069  0.25370500    -0.09300
C3200       C  0.37584720  0.09358731  0.25989925     0.06900
C3201       C  0.37811829  0.09488730  0.27299074    -0.03070
C3202       C  0.37376540  0.10555842  0.27932612    -0.07520
C3203       C  0.36744522  0.11527034  0.27293530     0.06010
C3204       C  0.36472787  0.11378339  0.26000865    -0.02540
Br3205     Br  0.35705941  0.12676427  0.24999931    -0.02240
H3206       H  0.36694900  0.10218009  0.24367742     0.09920
H3207       H  0.37584327  0.10651428  0.28928961     0.07940
Br3208     Br  0.38836190  0.08360470  0.28277315    -0.02670
C3209       C  0.60185060  0.75348692  0.86843465    -0.09300
C3210       C  0.59506496  0.75974736  0.87791863     0.06900
C3211       C  0.59790163  0.77247175  0.88055870    -0.03070
C3212       C  0.60710680  0.77869352  0.87351998    -0.07520
C3213       C  0.61385022  0.77242622  0.86403297     0.06010
C3214       C  0.61119294  0.75968134  0.86153555    -0.02540
Br3215     Br  0.61953127  0.75044229  0.84844149    -0.02240
H3216       H  0.59983879  0.74370246  0.86633327     0.09920
H3217       H  0.60927756  0.78842084  0.87574808     0.07940
Br3218     Br  0.59062603  0.78160373  0.89436655    -0.02670
C3219       C  0.73642756  0.68055700  0.00353408    -0.09300
C3220       C  0.73073744  0.67933317  0.99160442     0.06900
C3221       C  0.73855679  0.67816928  0.98093844    -0.03070
C3222       C  0.75172480  0.67818947  0.98235496    -0.07520
C3223       C  0.75744768  0.67944143  0.99427997     0.06010
C3224       C  0.74960784  0.68068672  0.00495145    -0.02540
Br3225     Br  0.75621518  0.68136540  0.02180158    -0.02240
H3226       H  0.73056245  0.68120675  0.01185157     0.09920
H3227       H  0.75754912  0.67699907  0.97407003     0.07940
Br3228     Br  0.73183192  0.67530354  0.96436419    -0.02670
C3229       C  0.61857193  0.69196030  0.96224590    -0.09300
C3230       C  0.63002946  0.69690822  0.95769343     0.06900
C3231       C  0.62956069  0.70697892  0.94904896    -0.03070
C3232       C  0.61786886  0.71139071  0.94469038    -0.07520
C3233       C  0.60644534  0.70598926  0.94875148     0.06010
C3234       C  0.60688631  0.69637298  0.95787223    -0.02540
Br3235     Br  0.59198538  0.68790683  0.96360655    -0.02240
H3236       H  0.61868846  0.68425187  0.96893091     0.09920
H3237       H  0.61772457  0.71878627  0.93765712     0.07940
Br3238     Br  0.64443553  0.71415460  0.94171670    -0.02670
C3239       C  0.64231407  0.61450897  0.01177134    -0.09300
C3240       C  0.64198585  0.62769281  0.01154092     0.06900
C3241       C  0.63204769  0.63412908  0.01749484    -0.03070
C3242       C  0.62260677  0.62730802  0.02363335    -0.07520
C3243       C  0.62300128  0.61411743  0.02395442     0.06010
C3244       C  0.63293805  0.60770031  0.01802077    -0.02540
Br3245     Br  0.63388401  0.58966516  0.01804898    -0.02240
H3246       H  0.64982786  0.60951628  0.00702216     0.09920
H3247       H  0.61507878  0.63230136  0.02837460     0.07940
Br3248     Br  0.63105106  0.65217839  0.01751188    -0.02670
C3249       C  0.23842430  0.17870255  0.47969455    -0.09300
C3250       C  0.23064974  0.17696566  0.49023185     0.06900
C3251       C  0.23628841  0.17672672  0.50234151    -0.03070
C3252       C  0.24944151  0.17778964  0.50365740    -0.07520
C3253       C  0.25725425  0.17885902  0.49305805     0.06010
C3254       C  0.25158557  0.17949532  0.48099806    -0.02540
Br3255     Br  0.26138156  0.18164431  0.46597693    -0.02240
H3256       H  0.23427997  0.17901833  0.47035029     0.09920
H3257       H  0.25361425  0.17732514  0.51298416     0.07940
Br3258     Br  0.22649761  0.17530756  0.51746068    -0.02670
C3259       C  0.13480434  0.10906857  0.52486245    -0.09300
C3260       C  0.12194641  0.11093114  0.52208544     0.06900
C3261       C  0.11857147  0.12073059  0.51371877    -0.03070
C3262       C  0.12790502  0.12869987  0.50896550    -0.07520
C3263       C  0.14059716  0.12746841  0.51261771     0.06010
C3264       C  0.14407225  0.11730450  0.52041705    -0.02540
Br3265     Br  0.16086411  0.11507655  0.52684000    -0.02240
H3266       H  0.13760773  0.10161034  0.53125032     0.09920
H3267       H  0.12508287  0.13637591  0.50285438     0.07940
Br3268     Br  0.10149607  0.12511184  0.50956111    -0.02670
C3269       C  0.12768914  0.19358922  0.44878938    -0.09300
C3270       C  0.12982070  0.19933451  0.46050585     0.06900
C3271       C  0.12036981  0.20722592  0.46552348    -0.03070
C3272       C  0.10910447  0.20924519  0.45885908    -0.07520
C3273       C  0.10688522  0.20346204  0.44714706     0.06010
C3274       C  0.11633021  0.19541492  0.44219561    -0.02540
Br3275     Br  0.11396769  0.18562588  0.42712979    -0.02240
H3276       H  0.13466125  0.18717538  0.44500723     0.09920
H3277       H  0.10214310  0.21557136  0.46278292     0.07940
Br3278     Br  0.12255930  0.21594355  0.48123702    -0.02670
C3279       C  0.10869487  0.25919492  0.38230394    -0.09300
C3280       C  0.09638280  0.25902951  0.37740332     0.06900
C3281       C  0.09368963  0.26571097  0.36628078    -0.03070
C3282       C  0.10334126  0.27219620  0.36010795    -0.07520
C3283       C  0.11572413  0.27220419  0.36488139     0.06010
C3284       C  0.11831051  0.26584105  0.37627502    -0.02540
Br3285     Br  0.13431922  0.26676027  0.38475771    -0.02240
H3286       H  0.11079267  0.25430413  0.39102850     0.09920
H3287       H  0.10118483  0.27715983  0.35144375     0.07940
Br3288     Br  0.07722355  0.26567556  0.35874851    -0.02670
C3289       C  0.98369960  0.13441174  0.87174072    -0.09300
C3290       C  0.97655992  0.14392376  0.86588215     0.06900
C3291       C  0.96331297  0.14342846  0.86654838    -0.03070
C3292       C  0.95750490  0.13289084  0.87186476    -0.07520
C3293       C  0.96467887  0.12275082  0.87645854     0.06010
C3294       C  0.97788349  0.12381895  0.87695223    -0.02540
Br3295     Br  0.98849179  0.11029506  0.88258755    -0.02240
H3296       H  0.99389675  0.13464458  0.87117025     0.09920
H3297       H  0.94731442  0.13217451  0.87151561     0.07940
Br3298     Br  0.95263997  0.15566029  0.85855610    -0.02670
C3299       C  0.10284680  0.13978194  0.62601136    -0.09300
C3300       C  0.11513031  0.13595360  0.62919193     0.06900
C3301       C  0.12049069  0.12558795  0.62291508    -0.03070
C3302       C  0.11343913  0.11894694  0.61410497    -0.07520
C3303       C  0.10115737  0.12264256  0.61081303     0.06010
C3304       C  0.09583755  0.13325696  0.61682337    -0.02540
Br3305     Br  0.07953392  0.13976474  0.61247207    -0.02240
H3306       H  0.09865383  0.14777060  0.63076993     0.09920
H3307       H  0.11778170  0.11089698  0.60960227     0.07940
Br3308     Br  0.13776433  0.12050230  0.62511582    -0.02670
C3309       C  0.04777570  0.00007218  0.74493939    -0.09300
C3310       C  0.05931172  0.00654298  0.74595162     0.06900
C3311       C  0.07058538  0.99946282  0.74582856    -0.03070
C3312       C  0.07017746  0.98636723  0.74434662    -0.07520
C3313       C  0.05869731  0.97984461  0.74306053     0.06010
C3314       C  0.04737849  0.98687482  0.74347720    -0.02540
Br3315     Br  0.03111396  0.97899771  0.74293701    -0.02240
H3316       H  0.03902585  0.00531738  0.74516672     0.09920
H3317       H  0.07899812  0.98123608  0.74423762     0.07940
Br3318     Br  0.08688815  0.00690546  0.74859971    -0.02670
C3319       C  0.04304831  0.12784424  0.79160260    -0.09300
C3320       C  0.03098300  0.13026880  0.78680849     0.06900
C3321       C  0.02502180  0.12099145  0.77938212    -0.03070
C3322       C  0.03118816  0.10960753  0.77671445    -0.07520
C3323       C  0.04323835  0.10701935  0.78165147     0.06010
C3324       C  0.04910590  0.11633031  0.78931459    -0.02540
Br3325     Br  0.06453415  0.11353636  0.79844787    -0.02240
H3326       H  0.04741783  0.13460229  0.79791718     0.09920
H3327       H  0.02645219  0.10271402  0.77084679     0.07940
Br3328     Br  0.00820658  0.12331950  0.77309773    -0.02670
C3329       C  0.10519419  0.10003080  0.71731055    -0.09300
C3330       C  0.11089805  0.09463906  0.72796366     0.06900
C3331       C  0.12250111  0.09946858  0.73236511    -0.03070
C3332       C  0.12818766  0.10956049  0.72611618    -0.07520
C3333       C  0.12250171  0.11487504  0.71545687     0.06010
C3334       C  0.11087705  0.11011924  0.71107689    -0.02540
Br3335     Br  0.10213249  0.11744122  0.69698731    -0.02240
H3336       H  0.09614027  0.09659474  0.71401230     0.09920
H3337       H  0.13724587  0.11302868  0.72935883     0.07940
Br3338     Br  0.13138666  0.09210871  0.74631945    -0.02670
C3339       C  0.25379947  0.56146213  0.48540407    -0.09300
C3340       C  0.24135005  0.55929083  0.48128458     0.06900
C3341       C  0.23208901  0.55637152  0.49034431    -0.03070
C3342       C  0.23527646  0.55617493  0.50321518    -0.07520
C3343       C  0.24765960  0.55863660  0.50730153     0.06010
C3344       C  0.25699699  0.56109893  0.49824307    -0.02540
Br3345     Br  0.27397341  0.56517940  0.50303405    -0.02240
H3346       H  0.26103314  0.56380826  0.47860983     0.09920
H3347       H  0.22794920  0.55452982  0.51011399     0.07940
Br3348     Br  0.21472712  0.55392412  0.48584423    -0.02670
C3349       C  0.26995903  0.61805669  0.39522156    -0.09300
C3350       C  0.25862098  0.61171296  0.39284423     0.06900
C3351       C  0.25242997  0.61338151  0.38118224    -0.03070
C3352       C  0.25827544  0.62025992  0.37162648    -0.07520
C3353       C  0.27033355  0.62527942  0.37352189     0.06010
C3354       C  0.27592641  0.62470578  0.38557009    -0.02540
Br3355     Br  0.29235655  0.63160698  0.38878570    -0.02240
H3356       H  0.27479316  0.61678104  0.40414681     0.09920
H3357       H  0.25396818  0.62059548  0.36235149     0.07940
Br3358     Br  0.23657091  0.60543965  0.37749207    -0.02670
C3359       C  0.18778410  0.49267960  0.25074822    -0.09300
C3360       C  0.17632356  0.49451230  0.25713147     0.06900
C3361       C  0.16503789  0.49433428  0.25002292    -0.03070
C3362       C  0.16531334  0.49174440  0.23710286    -0.07520
C3363       C  0.17669188  0.48966038  0.23064119     0.06010
C3364       C  0.18807299  0.49033236  0.23764818    -0.02540
Br3365     Br  0.20431928  0.48901075  0.22990550    -0.02240
H3366       H  0.19656242  0.49298509  0.25598760     0.09920
H3367       H  0.15642510  0.49148391  0.23206041     0.07940
Br3368     Br  0.14891740  0.49865843  0.25703096    -0.02670
C3369       C  0.19447709  0.53862944  0.36526135    -0.09300
C3370       C  0.20077024  0.53131575  0.35611620     0.06900
C3371       C  0.21318468  0.52726145  0.35886889    -0.03070
C3372       C  0.21883940  0.53047100  0.37043383    -0.07520
C3373       C  0.21237589  0.53747457  0.37962574     0.06010
C3374       C  0.20008301  0.54166394  0.37686743    -0.02540
Br3375     Br  0.19076825  0.55228280  0.38813044    -0.02240
H3376       H  0.18506350  0.54210866  0.36338200     0.09920
H3377       H  0.22836838  0.52731427  0.37234540     0.07940
Br3378     Br  0.22279795  0.51665264  0.34787941    -0.02670
C3379       C  0.12131033  0.37331214  0.37714068    -0.09300
C3380       C  0.12372011  0.37437848  0.39012464     0.06900
C3381       C  0.13244687  0.36614120  0.39582625    -0.03070
C3382       C  0.13877281  0.35720681  0.38839769    -0.07520
C3383       C  0.13646172  0.35643419  0.37536182     0.06010
C3384       C  0.12767408  0.36461430  0.36975781    -0.02540
Br3385     Br  0.12471737  0.36509403  0.35186623    -0.02240
H3386       H  0.11473312  0.37965714  0.37256690     0.09920
H3387       H  0.14544000  0.35083508  0.39278943     0.07940
Br3388     Br  0.13657899  0.36722261  0.41339963    -0.02670
C3389       C  0.11190159  0.46160427  0.35344795    -0.09300
C3390       C  0.11146728  0.46648641  0.36574768     0.06900
C3391       C  0.11671722  0.47844741  0.36801598    -0.03070
C3392       C  0.12291727  0.48477286  0.35829125    -0.07520
C3393       C  0.12427133  0.47951488  0.34612219     0.06010
C3394       C  0.11817960  0.46784294  0.34370803    -0.02540
Br3395     Br  0.11758570  0.45941699  0.32770118    -0.02240
H3396       H  0.10758109  0.45255321  0.35143199     0.09920
H3397       H  0.12721526  0.49370750  0.36068481     0.07940
Br3398     Br  0.11707567  0.48630496  0.38431729    -0.02670
C3399       C  0.55825372  0.50019358  0.23339745    -0.09300
C3400       C  0.55879004  0.50565533  0.24547469     0.06900
C3401       C  0.55935668  0.49761111  0.25605100    -0.03070
C3402       C  0.55946575  0.48447699  0.25440145    -0.07520
C3403       C  0.55891697  0.47900185  0.24232586     0.06010
C3404       C  0.55824918  0.48705448  0.23174644    -0.02540
Br3405     Br  0.55857047  0.48077555  0.21478500    -0.02240
H3406       H  0.55807247  0.50620949  0.22514993     0.09920
H3407       H  0.56021033  0.47848337  0.26263350     0.07940
Br3408     Br  0.56125232  0.50396597  0.27288717    -0.02670
C3409       C  0.60385711  0.62963775  0.13227844    -0.09300
C3410       C  0.61268883  0.63873290  0.12846556     0.06900
C3411       C  0.61413468  0.64136192  0.11556656    -0.03070
C3412       C  0.60755940  0.63415049  0.10669733    -0.07520
C3413       C  0.59946221  0.62438797  0.11050398     0.06010
C3414       C  0.59721093  0.62249135  0.12342041    -0.02540
Br3415     Br  0.58655423  0.60923026  0.12953686    -0.02240
H3416       H  0.60267405  0.62757104  0.14220901     0.09920
H3417       H  0.60929382  0.63572318  0.09675962     0.07940
Br3418     Br  0.62610522  0.65346944  0.10950513    -0.02670
C3419       C  0.61454641  0.60715157  0.20705907    -0.09300
C3420       C  0.62469512  0.61324394  0.21303325     0.06900
C3421       C  0.62769345  0.61013126  0.22557842    -0.03070
C3422       C  0.62071989  0.60086068  0.23181606    -0.07520
C3423       C  0.61067250  0.59461338  0.22578608     0.06010
C3424       C  0.60743477  0.59804040  0.21333715    -0.02540
Br3425     Br  0.59279450  0.59166000  0.20473878    -0.02240
H3426       H  0.61193631  0.60970897  0.19751055     0.09920
H3427       H  0.62324725  0.59843011  0.24141527     0.07940
Br3428     Br  0.64160266  0.61768643  0.23439488    -0.02670
C3429       C  0.36866839  0.58806250  0.35668442    -0.09300
C3430       C  0.37751885  0.59631975  0.36195135     0.06900
C3431       C  0.37617114  0.60940223  0.36009870    -0.03070
C3432       C  0.36617866  0.61399523  0.35281686    -0.07520
C3433       C  0.35741826  0.60572112  0.34734025     0.06010
C3434       C  0.35872722  0.59263093  0.34932634    -0.02540
Br3435     Br  0.34795751  0.58044482  0.34133698    -0.02240
H3436       H  0.36984281  0.57798620  0.35778649     0.09920
H3437       H  0.36512311  0.62407565  0.35162437     0.07940
Br3438     Br  0.38742991  0.62140054  0.36771272    -0.02670
C3439       C  0.52740606  0.62317315  0.28221852    -0.09300
C3440       C  0.53441203  0.62984730  0.29132167     0.06900
C3441       C  0.54592217  0.62471898  0.29556240    -0.03070
C3442       C  0.54999453  0.61305162  0.29110358    -0.07520
C3443       C  0.54299635  0.60616585  0.28216600     0.06010
C3444       C  0.53160440  0.61143351  0.27760192    -0.02540
Br3445     Br  0.52177464  0.60350250  0.26463620    -0.02240
H3446       H  0.51854392  0.62698674  0.27885336     0.09920
H3447       H  0.55884382  0.60937499  0.29465084     0.07940
Br3448     Br  0.55695040  0.63353092  0.30697553    -0.02670
C3449       C  0.48262042  0.62835887  0.35389688    -0.09300
C3450       C  0.48261984  0.63956633  0.36091419     0.06900
C3451       C  0.47614376  0.64002788  0.37246132    -0.03070
C3452       C  0.46974900  0.62931372  0.37679746    -0.07520
C3453       C  0.46955768  0.61822575  0.36958787     0.06010
C3454       C  0.47606048  0.61778996  0.35806982    -0.02540
Br3455     Br  0.47625228  0.60296007  0.34768849    -0.02240
H3456       H  0.48756629  0.62789485  0.34498746     0.09920
H3457       H  0.46456928  0.62976631  0.38557143     0.07940
Br3458     Br  0.47592423  0.65497646  0.38259441    -0.02670
C3459       C  0.68010672  0.00156079  0.75040645    -0.09300
C3460       C  0.67897884  0.99116167  0.75851258     0.06900
C3461       C  0.67821211  0.97898065  0.75311752    -0.03070
C3462       C  0.67803566  0.97746893  0.73995431    -0.07520
C3463       C  0.67840652  0.98792471  0.73189097     0.06010
C3464       C  0.67970636  0.00004489  0.73724195    -0.02540
Br3465     Br  0.68113248  0.01483309  0.72695222    -0.02240
H3466       H  0.68080462  0.01096405  0.75431558     0.09920
H3467       H  0.67714630  0.96809551  0.73600506     0.07940
Br3468     Br  0.67766207  0.96399005  0.76321218    -0.02670
C3469       C  0.62167605  0.87447408  0.87262074    -0.09300
C3470       C  0.62409617  0.87673991  0.88546633     0.06900
C3471       C  0.63431001  0.87037750  0.89129149    -0.03070
C3472       C  0.64134014  0.86157623  0.88434907    -0.07520
C3473       C  0.63852403  0.85920356  0.87163003     0.06010
C3474       C  0.62890643  0.86610813  0.86568160    -0.02540
Br3475     Br  0.62545674  0.86492089  0.84790475    -0.02240
H3476       H  0.61402900  0.87920610  0.86779547     0.09920
H3477       H  0.64880866  0.85635160  0.88897294     0.07940
Br3478     Br  0.63964334  0.87352502  0.90830086    -0.02670
C3479       C  0.61050425  0.96291595  0.85512990    -0.09300
C3480       C  0.61554869  0.96296734  0.86741273     0.06900
C3481       C  0.62671666  0.96981489  0.86982395    -0.03070
C3482       C  0.63227747  0.97676374  0.86013495    -0.07520
C3483       C  0.62716711  0.97673756  0.84790763     0.06010
C3484       C  0.61624623  0.96965106  0.84539859    -0.02540
Br3485     Br  0.60844859  0.96933300  0.82905286    -0.02240
H3486       H  0.60199270  0.95763849  0.85308400     0.09920
H3487       H  0.64086740  0.98195880  0.86208143     0.07940
Br3488     Br  0.63562201  0.96914252  0.88560873    -0.02670
C3489       C  0.73043651  0.05658302  0.98925219    -0.09300
C3490       C  0.74083998  0.05769993  0.98118910     0.06900
C3491       C  0.75307097  0.05788488  0.98654867    -0.03070
C3492       C  0.75466519  0.05744374  0.99970199    -0.07520
C3493       C  0.74422330  0.05708702  0.00778298     0.06010
C3494       C  0.73202373  0.05642532  0.00241325    -0.02540
Br3495     Br  0.71719542  0.05521755  0.01265302    -0.02240
H3496       H  0.72099653  0.05635628  0.98532412     0.09920
H3497       H  0.76409263  0.05791959  0.00364103     0.07940
Br3498     Br  0.76796257  0.05859198  0.97634380    -0.02670
C3499       C  0.69868624  0.04123951  0.87785163    -0.09300
C3500       C  0.70997144  0.03489846  0.88048307     0.06900
C3501       C  0.71485203  0.02656342  0.87135790    -0.03070
C3502       C  0.70840476  0.02457476  0.85994634    -0.07520
C3503       C  0.69709677  0.03092145  0.85724121     0.06010
C3504       C  0.69235379  0.03949585  0.86632932    -0.02540
Br3505     Br  0.67804714  0.05014611  0.86318481    -0.02240
H3506       H  0.69511609  0.04808232  0.88452669     0.09920
H3507       H  0.71219031  0.01789690  0.85323712     0.07940
Br3508     Br  0.73021137  0.01744382  0.87418177    -0.02670
C3509       C  0.86861255  0.11474497  0.85128390    -0.09300
C3510       C  0.85887115  0.10698828  0.84679872     0.06900
C3511       C  0.85953090  0.09386468  0.84887232    -0.03070
C3512       C  0.86973251  0.08876740  0.85545315    -0.07520
C3513       C  0.87949248  0.09649209  0.85983529     0.06010
C3514       C  0.87887258  0.10961263  0.85780541    -0.02540
Br3515     Br  0.89132520  0.12101487  0.86441187    -0.02240
H3516       H  0.86807826  0.12485811  0.85001275     0.09920
H3517       H  0.87027998  0.07866008  0.85674545     0.07940
Br3518     Br  0.84735342  0.08226235  0.84212290    -0.02670
C3519       C  0.75787514  0.12077453  0.87167560    -0.09300
C3520       C  0.76978781  0.12586343  0.87423028     0.06900
C3521       C  0.77492582  0.12480335  0.88645066    -0.03070
C3522       C  0.76872906  0.11760319  0.89555112    -0.07520
C3523       C  0.75758170  0.11120000  0.89248643     0.06010
C3524       C  0.75177206  0.11338724  0.88069748    -0.02540
Br3525     Br  0.73596052  0.10578652  0.87616301    -0.02240
H3526       H  0.75387661  0.12152609  0.86228893     0.09920
H3527       H  0.77324221  0.11604074  0.90459521     0.07940
Br3528     Br  0.79104462  0.13191685  0.89066058    -0.02670
C3529       C  0.25663615  0.42864731  0.98786183    -0.09300
C3530       C  0.24587933  0.42776501  0.98014744     0.06900
C3531       C  0.23389780  0.42763702  0.98597101    -0.03070
C3532       C  0.23290413  0.42788678  0.99917838    -0.07520
C3533       C  0.24368351  0.42808815  0.00690204     0.06010
C3534       C  0.25564621  0.42871883  0.00107663    -0.02540
Br3535     Br  0.27097090  0.43011953  0.01065647    -0.02240
H3536       H  0.26590183  0.42890216  0.98360484     0.09920
H3537       H  0.22364178  0.42754066  0.00343552     0.07940
Br3538     Br  0.21850142  0.42756521  0.97640383    -0.02670
C3539       C  0.21949009  0.37336164  0.86925533    -0.09300
C3540       C  0.21411832  0.36177651  0.87263454     0.06900
C3541       C  0.21538226  0.35743924  0.88514999    -0.03070
C3542       C  0.22190947  0.36470919  0.89402769    -0.07520
C3543       C  0.22735073  0.37622185  0.89060036     0.06010
C3544       C  0.22600536  0.38062296  0.87812144    -0.02540
Br3545     Br  0.23208275  0.39683807  0.87286307    -0.02240
H3546       H  0.21831104  0.37696100  0.85976524     0.09920
H3547       H  0.22304678  0.36119977  0.90355270     0.07940
Br3548     Br  0.20915937  0.34131519  0.89044902    -0.02670
C3549       C  0.32307879  0.48967701  0.74988512    -0.09300
C3550       C  0.31173827  0.48890415  0.75667555     0.06900
C3551       C  0.30028720  0.49064639  0.74999163    -0.03070
C3552       C  0.30042660  0.49273413  0.73685657    -0.07520
C3553       C  0.31181949  0.49323900  0.73012586     0.06010
C3554       C  0.32324090  0.49198064  0.73691130    -0.02540
Br3555     Br  0.33952726  0.49442988  0.72938693    -0.02240
H3556       H  0.33202273  0.48860379  0.75471876     0.09920
H3557       H  0.29157689  0.49390140  0.73186750     0.07940
Br3558     Br  0.28424715  0.49121226  0.75824257    -0.02670
C3559       C  0.29767653  0.45643288  0.86769277    -0.09300
C3560       C  0.28885068  0.45743713  0.85777426     0.06900
C3561       C  0.27676725  0.45215879  0.85942262    -0.03070
C3562       C  0.27370729  0.44619185  0.87084565    -0.07520
C3563       C  0.28247107  0.44552306  0.88081146     0.06010
C3564       C  0.29459954  0.45052460  0.87907357    -0.02540
Br3565     Br  0.30741347  0.44903660  0.89179915    -0.02240
H3566       H  0.30706243  0.46030774  0.86660401     0.09920
H3567       H  0.26439626  0.44216386  0.87201247     0.07940
Br3568     Br  0.26386599  0.45360764  0.84680238    -0.02670
C3569       C  0.37294792  0.50889782  0.86645050    -0.09300
C3570       C  0.37656863  0.52138348  0.86426848     0.06900
C3571       C  0.37495477  0.52664437  0.85217645    -0.03070
C3572       C  0.36854674  0.51986066  0.84285474    -0.07520
C3573       C  0.36350650  0.50798008  0.84557450     0.06010
C3574       C  0.36633217  0.50220029  0.85721519    -0.02540
Br3575     Br  0.36047073  0.48558301  0.86128460    -0.02240
H3576       H  0.37421574  0.50476532  0.87570897     0.09920
H3577       H  0.36646931  0.52435538  0.83391782     0.07940
Br3578     Br  0.38044052  0.54343370  0.84831984    -0.02670
C3579       C  0.93880156  0.48509544  0.74295990    -0.09300
C3580       C  0.92736050  0.47888171  0.74543684     0.06900
C3581       C  0.91635763  0.48622331  0.74687407    -0.03070
C3582       C  0.91685765  0.49930923  0.74537256    -0.07520
C3583       C  0.92819765  0.50558941  0.74258665     0.06010
C3584       C  0.93931002  0.49829261  0.74152362    -0.02540
Br3585     Br  0.95555691  0.50575674  0.73891206    -0.02240
H3586       H  0.94737205  0.47964651  0.74199298     0.09920
H3587       H  0.90820318  0.50460636  0.74640031     0.07940
Br3588     Br  0.90043671  0.47915020  0.75181586    -0.02670
C3589       C  0.86144844  0.37196147  0.72649045    -0.09300
C3590       C  0.86499218  0.36997634  0.71395282     0.06900
C3591       C  0.87425934  0.37776588  0.70848844    -0.03070
C3592       C  0.87967626  0.38746801  0.71556300    -0.07520
C3593       C  0.87608384  0.38956994  0.72811123     0.06010
C3594       C  0.86680343  0.38172849  0.73355942    -0.02540
Br3595     Br  0.86032531  0.38436704  0.75022827    -0.02240
H3596       H  0.85420283  0.36612321  0.73067984     0.09920
H3597       H  0.88698880  0.39317276  0.71131399     0.07940
Br3598     Br  0.88053761  0.37509664  0.69172643    -0.02670
C3599       C  0.10639043  0.37826630  0.85441217    -0.09300
C3600       C  0.11055412  0.38714765  0.86334029     0.06900
C3601       C  0.12352794  0.38961030  0.86457101    -0.03070
C3602       C  0.13212365  0.38246661  0.85764914    -0.07520
C3603       C  0.12797357  0.37295905  0.84939333     0.06010
C3604       C  0.11498206  0.37121134  0.84740339    -0.02540
Br3605     Br  0.10847455  0.35829600  0.83650928    -0.02240
H3606       H  0.09640570  0.37634935  0.85335424     0.09920
H3607       H  0.14212733  0.38389690  0.85920176     0.07940
Br3608     Br  0.13009324  0.40141037  0.87663396    -0.02670
C3609       C  0.98323905  0.24857978  0.80760847    -0.09300
C3610       C  0.99403945  0.25623316  0.80779327     0.06900
C3611       C  0.00601019  0.25037842  0.80775969    -0.03070
C3612       C  0.00698808  0.23718569  0.80798300    -0.07520
C3613       C  0.99619363  0.22955546  0.80851999     0.06010
C3614       C  0.98421990  0.23538895  0.80810082    -0.02540
Br3615     Br  0.96887656  0.22579084  0.80796004    -0.02240
H3616       H  0.97398087  0.25288189  0.80757336     0.09920
H3617       H  0.01624504  0.23288596  0.80821687     0.07940
Br3618     Br  0.02137043  0.25993007  0.80721127    -0.02670
C3619       C  0.94629407  0.36258406  0.79824375    -0.09300
C3620       C  0.95559226  0.35597637  0.79154603     0.06900
C3621       C  0.96046999  0.36147349  0.78043376    -0.03070
C3622       C  0.95587252  0.37322625  0.77623863    -0.07520
C3623       C  0.94646436  0.37966611  0.78297347     0.06010
C3624       C  0.94182924  0.37425113  0.79417414    -0.02540
Br3625     Br  0.92983300  0.38264682  0.80480681    -0.02240
H3626       H  0.94250652  0.35870064  0.80688268     0.09920
H3627       H  0.95949371  0.37723163  0.76758631     0.07940
Br3628     Br  0.97381848  0.35381396  0.77102732    -0.02670
C3629       C  0.00588377  0.35247689  0.86949078    -0.09300
C3630       C  0.01210104  0.34490319  0.86057871     0.06900
C3631       C  0.02501177  0.34709870  0.85819768    -0.03070
C3632       C  0.03144116  0.35637782  0.86499771    -0.07520
C3633       C  0.02522848  0.36386286  0.87394276     0.06010
C3634       C  0.01229253  0.36193023  0.87610017    -0.02540
Br3635     Br  0.00304426  0.37143128  0.88836643    -0.02240
H3636       H  0.99596462  0.35099640  0.87138897     0.09920
H3637       H  0.04132531  0.35799850  0.86301122     0.07940
Br3638     Br  0.03424975  0.33883579  0.84503512    -0.02670
C3639       C  0.88960103  0.35286902  0.61449016    -0.09300
C3640       C  0.88601750  0.36522142  0.61143261     0.06900
C3641       C  0.87593008  0.37082659  0.61788085    -0.03070
C3642       C  0.86901915  0.36383835  0.62649010    -0.07520
C3643       C  0.87217826  0.35130926  0.62937503     0.06010
C3644       C  0.88285483  0.34589983  0.62349529    -0.02540
Br3645     Br  0.88920313  0.32950624  0.62767938    -0.02240
H3646       H  0.89748472  0.34854678  0.60967485     0.09920
H3647       H  0.86103244  0.36834754  0.63091634     0.07940
Br3648     Br  0.87145301  0.38824634  0.61578336    -0.02670
C3649       C  0.75238861  0.30884178  0.50061702    -0.09300
C3650       C  0.75712691  0.30843427  0.48823821     0.06900
C3651       C  0.74849910  0.30698124  0.47818225    -0.03070
C3652       C  0.73550350  0.30625002  0.48059626    -0.07520
C3653       C  0.73075616  0.30676440  0.49295303     0.06010
C3654       C  0.73939107  0.30794836  0.50304039    -0.02540
Br3655     Br  0.73394974  0.30961475  0.52019085    -0.02240
H3656       H  0.75883471  0.31008706  0.50846784     0.09920
H3657       H  0.72901365  0.30556462  0.47271447     0.07940
Br3658     Br  0.75374234  0.30719468  0.46089392    -0.02670
C3659       C  0.84793030  0.36658376  0.51083850    -0.09300
C3660       C  0.84757849  0.35436664  0.51594843     0.06900
C3661       C  0.85605290  0.35118011  0.52574284    -0.03070
C3662       C  0.86483107  0.35999787  0.52997720    -0.07520
C3663       C  0.86529474  0.37209646  0.52477910     0.06010
C3664       C  0.85673673  0.37545406  0.51521417    -0.02540
Br3665     Br  0.85671211  0.39204359  0.50809506    -0.02240
H3666       H  0.84149451  0.36916503  0.50332203     0.09920
H3667       H  0.87116479  0.35750267  0.53762009     0.07940
Br3668     Br  0.85553856  0.33534581  0.53450743    -0.02670
C3669       C  0.98849337  0.25414159  0.43037223    -0.09300
C3670       C  0.98088779  0.24330817  0.43029250     0.06900
C3671       C  0.98683545  0.23139594  0.43072163    -0.03070
C3672       C  0.00005578  0.23051113  0.43072836    -0.07520
C3673       C  0.00765676  0.24132867  0.43011214     0.06010
C3674       C  0.00171490  0.25325329  0.43018515    -0.02540
Br3675     Br  0.01114951  0.26868697  0.43043291    -0.02240
H3676       H  0.98413465  0.26336347  0.43017230     0.09920
H3677       H  0.00440811  0.22128488  0.43081449     0.07940
Br3678     Br  0.97741200  0.21598638  0.43169439    -0.02670
C3679       C  0.87956183  0.29241663  0.45010895    -0.09300
C3680       C  0.88103991  0.28017498  0.44545172     0.06900
C3681       C  0.87068216  0.27181282  0.44583796    -0.03070
C3682       C  0.85922934  0.27562979  0.45125547    -0.07520
C3683       C  0.85786023  0.28778977  0.45624138     0.06010
C3684       C  0.86810097  0.29629600  0.45536745    -0.02540
Br3685     Br  0.86675506  0.31356798  0.46058476    -0.02240
H3686       H  0.88727207  0.29907860  0.44940132     0.09920
H3687       H  0.85152875  0.26895856  0.45194779     0.07940
Br3688     Br  0.87191499  0.25493616  0.43949456    -0.02670
C3689       C  0.86996104  0.21825595  0.37446368    -0.09300
C3690       C  0.87358626  0.21207070  0.36336859     0.06900
C3691       C  0.88638643  0.21219503  0.35977539    -0.03070
C3692       C  0.89527091  0.21849667  0.36723650    -0.07520
C3693       C  0.89159068  0.22481929  0.37820629     0.06010
C3694       C  0.87883605  0.22453285  0.38192268    -0.02540
Br3695     Br  0.87312172  0.23176292  0.39749969    -0.02240
H3696       H  0.86023381  0.21792584  0.37753783     0.09920
H3697       H  0.90502826  0.21878384  0.36426435     0.07940
Br3698     Br  0.89216544  0.20469643  0.34437677    -0.02670
C3699       C  0.73039235  0.92925390  0.49927030    -0.09300
C3700       C  0.74082424  0.92730464  0.50719926     0.06900
C3701       C  0.75299069  0.92699784  0.50176622    -0.03070
C3702       C  0.75444369  0.92801227  0.48863621    -0.07520
C3703       C  0.74392526  0.92914738  0.48065152     0.06010
C3704       C  0.73183094  0.93005559  0.48613883    -0.02540
Br3705     Br  0.71692320  0.93253030  0.47613932    -0.02240
H3706       H  0.72101148  0.92965256  0.50325509     0.09920
H3707       H  0.76379946  0.92738838  0.48461807     0.07940
Br3708     Br  0.76800272  0.92546706  0.51181518    -0.02670
C3709       C  0.72625674  0.87915346  0.38096780    -0.09300
C3710       C  0.72591994  0.87507918  0.39355138     0.06900
C3711       C  0.71861420  0.86449741  0.39673586    -0.03070
C3712       C  0.71195976  0.85806680  0.38731873    -0.07520
C3713       C  0.71244038  0.86202595  0.37469013     0.06010
C3714       C  0.71949147  0.87285237  0.37157582    -0.02540
Br3715     Br  0.71938950  0.88026781  0.35505627    -0.02240
H3716       H  0.73161003  0.88747970  0.37846460     0.09920
H3717       H  0.70647744  0.84984013  0.38985245     0.07940
Br3718     Br  0.71797683  0.85801779  0.41359790    -0.02670
C3719       C  0.85433729  0.11356939  0.39381967    -0.09300
C3720       C  0.86513412  0.10849576  0.38809279     0.06900
C3721       C  0.86897616  0.11318746  0.37627903    -0.03070
C3722       C  0.86170509  0.12215761  0.37013918    -0.07520
C3723       C  0.85084512  0.12721098  0.37568734     0.06010
C3724       C  0.84722900  0.12296681  0.38776288    -0.02540
Br3725     Br  0.83335525  0.13016026  0.39679132    -0.02240
H3726       H  0.85136781  0.11015317  0.40296215     0.09920
H3727       H  0.86479100  0.12541158  0.36097641     0.07940
Br3728     Br  0.88462639  0.10870532  0.36833154    -0.02670
C3729       C  0.82171283  0.99577067  0.25249113    -0.09300
C3730       C  0.80997307  0.99364683  0.25825649     0.06900
C3731       C  0.79907800  0.99373000  0.25050809    -0.03070
C3732       C  0.80016667  0.99574885  0.23740253    -0.07520
C3733       C  0.81197650  0.99776607  0.23172640     0.06010
C3734       C  0.82279226  0.99798119  0.23954959    -0.02540
Br3735     Br  0.83931404  0.00234818  0.23353944    -0.02240
H3736       H  0.83025359  0.99585202  0.25810879     0.09920
H3737       H  0.79173685  0.99566244  0.23161127     0.07940
Br3738     Br  0.78242738  0.99196738  0.25724453    -0.02670
C3739       C  0.79594224  0.94219087  0.36163944    -0.09300
C3740       C  0.79154144  0.95392959  0.35752084     0.06900
C3741       C  0.78338265  0.96079702  0.36544757    -0.03070
C3742       C  0.77953046  0.95565880  0.37708883    -0.07520
C3743       C  0.78381624  0.94374717  0.38107699     0.06010
C3744       C  0.79234293  0.93715269  0.37323298    -0.02540
Br3745     Br  0.80050949  0.92172292  0.37809029    -0.02240
H3746       H  0.80258558  0.93699963  0.35589506     0.09920
H3747       H  0.77311674  0.96094934  0.38298543     0.07940
Br3748     Br  0.77806018  0.97752684  0.36125018    -0.02670
C3749       C  0.87050312  0.00077502  0.35425071    -0.09300
C3750       C  0.85994009  0.00625017  0.34839309     0.06900
C3751       C  0.85545055  0.01796278  0.35276957    -0.03070
C3752       C  0.86198019  0.02426817  0.36229035    -0.07520
C3753       C  0.87277439  0.01900182  0.36783093     0.06010
C3754       C  0.87692746  0.00706042  0.36393525    -0.02540
Br3755     Br  0.89171941  0.99937290  0.37096002    -0.02240
H3756       H  0.87390870  0.99168658  0.35111332     0.09920
H3757       H  0.85854308  0.03333660  0.36547449     0.07940
Br3758     Br  0.83998813  0.02545582  0.34699347    -0.02670
C3759       C  0.36305507  0.62389684  0.87492800    -0.09300
C3760       C  0.35026039  0.62738414  0.87560701     0.06900
C3761       C  0.34268958  0.62195321  0.88513529    -0.03070
C3762       C  0.34782871  0.61283470  0.89316085    -0.07520
C3763       C  0.36051862  0.60932476  0.89227373     0.06010
C3764       C  0.36822798  0.61507436  0.88319688    -0.02540
Br3765     Br  0.38561444  0.61057470  0.88099242    -0.02240
H3766       H  0.36909681  0.62784348  0.86773159     0.09920
H3767       H  0.34186012  0.60839041  0.90013887     0.07940
Br3768     Br  0.32562376  0.62687734  0.88847241    -0.02670
C3769       C  0.48732479  0.75466648  0.93142843    -0.09300
C3770       C  0.47976016  0.74380396  0.93117467     0.06900
C3771       C  0.48575157  0.73190529  0.93141979    -0.03070
C3772       C  0.49897460  0.73107692  0.93148245    -0.07520
C3773       C  0.50652211  0.74193749  0.93108117     0.06010
C3774       C  0.50054419  0.75383169  0.93127072    -0.02540
Br3775     Br  0.50995015  0.76927922  0.93169042    -0.02240
H3776       H  0.48293796  0.76387588  0.93134531     0.09920
H3777       H  0.50337605  0.72187267  0.93144700     0.07940
Br3778     Br  0.47640174  0.71643305  0.93205982    -0.02670
C3779       C  0.38646340  0.71762492  0.88291847    -0.09300
C3780       C  0.39167958  0.72816244  0.87691384     0.06900
C3781       C  0.38683448  0.73203619  0.86514512    -0.03070
C3782       C  0.37706200  0.72521608  0.85945998    -0.07520
C3783       C  0.37206150  0.71454153  0.86535761     0.06010
C3784       C  0.37666396  0.71085846  0.87727476    -0.02540
Br3785     Br  0.36956015  0.69695689  0.88641798    -0.02240
H3786       H  0.38988129  0.71477237  0.89212429     0.09920
H3787       H  0.37368368  0.72796799  0.85021255     0.07940
Br3788     Br  0.39385936  0.74596204  0.85603273    -0.02670
C3789       C  0.24868012  0.80753538  0.97888968    -0.09300
C3790       C  0.25669838  0.80852917  0.98938951     0.06900
C3791       C  0.25130968  0.80854333  0.00156765    -0.03070
C3792       C  0.23815435  0.80807370  0.00301116    -0.07520
C3793       C  0.23011338  0.80782969  0.99247495     0.06010
C3794       C  0.23552538  0.80731009  0.98032518    -0.02540
Br3795     Br  0.22540675  0.80605466  0.96534144    -0.02240
H3796       H  0.25264340  0.80740788  0.96949196     0.09920
H3797       H  0.23418327  0.80837722  0.01240379     0.07940
Br3798     Br  0.26146494  0.80894237  0.01658181    -0.02670
C3799       C  0.35963113  0.79218647  0.94634125    -0.09300
C3800       C  0.35657631  0.78557886  0.95735071     0.06900
C3801       C  0.36530442  0.77679871  0.96219707    -0.03070
C3802       C  0.37683376  0.77476504  0.95608721    -0.07520
C3803       C  0.38003115  0.78147848  0.94514143     0.06010
C3804       C  0.37125820  0.79034413  0.94031686    -0.02540
Br3805     Br  0.37503725  0.80127286  0.92640190    -0.02240
H3806       H  0.35324600  0.79933574  0.94281168     0.09920
H3807       H  0.38328875  0.76783326  0.95989377     0.07940
Br3808     Br  0.36181516  0.76726949  0.97714979    -0.02670
C3809       C  0.35652483  0.86313369  0.00362772    -0.09300
C3810       C  0.34531590  0.86063194  0.01018641     0.06900
C3811       C  0.34363886  0.86570122  0.02232111    -0.03070
C3812       C  0.35364685  0.87198608  0.02818484    -0.07520
C3813       C  0.36527614  0.87339006  0.02206526     0.06010
C3814       C  0.36649075  0.86950952  0.00945749    -0.02540
Br3815     Br  0.38213936  0.87083513  0.00052429    -0.02240
H3816       H  0.35791092  0.85920330  0.99430377     0.09920
H3817       H  0.35268883  0.87489004  0.03793141     0.07940
Br3818     Br  0.32875260  0.86257712  0.03206297    -0.02670
C3819       C  0.48332358  0.74819103  0.30756779    -0.09300
C3820       C  0.49435916  0.75549484  0.30810692     0.06900
C3821       C  0.50613788  0.74926949  0.30808083    -0.03070
C3822       C  0.50668397  0.73604600  0.30784649    -0.07520
C3823       C  0.49563626  0.72874985  0.30792290     0.06010
C3824       C  0.48387187  0.73497151  0.30762735    -0.02540
Br3825     Br  0.46824714  0.72586136  0.30703998    -0.02240
H3826       H  0.47420526  0.75277972  0.30752402     0.09920
H3827       H  0.51579369  0.73144062  0.30802640     0.07940
Br3828     Br  0.52179778  0.75834179  0.30804701    -0.02670
C3829       C  0.60727659  0.88105471  0.35330685    -0.09300
C3830       C  0.61140064  0.88913008  0.36299456     0.06900
C3831       C  0.62439265  0.89107329  0.36480286    -0.03070
C3832       C  0.63299953  0.88413795  0.35767550    -0.07520
C3833       C  0.62884670  0.87533077  0.34866742     0.06010
C3834       C  0.61588593  0.87419383  0.34611467    -0.02540
Br3835     Br  0.60937940  0.86222350  0.33419007    -0.02240
H3836       H  0.59727809  0.87951866  0.35182634     0.09920
H3837       H  0.64297899  0.88506918  0.35970138     0.07940
Br3838     Br  0.63086908  0.90171580  0.37794340    -0.02670
C3839       C  0.51368431  0.86166602  0.37593788    -0.09300
C3840       C  0.52589944  0.86394703  0.37151084     0.06900
C3841       C  0.53068004  0.85656850  0.36155200    -0.03070
C3842       C  0.52334539  0.84688449  0.35644609    -0.07520
C3843       C  0.51116536  0.84446384  0.36096388     0.06010
C3844       C  0.50632761  0.85197959  0.37081121    -0.02540
Br3845     Br  0.49013132  0.84896983  0.37824550    -0.02240
H3846       H  0.50998566  0.86721341  0.38366083     0.09920
H3847       H  0.52705970  0.84145514  0.34864928     0.07940
Br3848     Br  0.54672997  0.85985248  0.35386731    -0.02670
C3849       C  0.43979921  0.98513966  0.24466560    -0.09300
C3850       C  0.42841905  0.97843930  0.24584231     0.06900
C3851       C  0.41702288  0.98530820  0.24600185    -0.03070
C3852       C  0.41713670  0.99837860  0.24443621    -0.07520
C3853       C  0.42844402  0.00517634  0.24303432     0.06010
C3854       C  0.43991978  0.99835676  0.24330762    -0.02540
Br3855     Br  0.45607849  0.00643611  0.24271852    -0.02240
H3856       H  0.44865183  0.98006134  0.24472458     0.09920
H3857       H  0.40817617  0.00324532  0.24439414     0.07940
Br3858     Br  0.40094047  0.97769484  0.24942929    -0.02670
C3859       C  0.44653920  0.86745547  0.27537161    -0.09300
C3860       C  0.45071765  0.87892598  0.28061449     0.06900
C3861       C  0.45995644  0.87859666  0.29016991    -0.03070
C3862       C  0.46429303  0.86697196  0.29472492    -0.07520
C3863       C  0.45961190  0.85548351  0.28994542     0.06010
C3864       C  0.45088143  0.85583031  0.27990949    -0.02540
Br3865     Br  0.44339848  0.84086430  0.27301872    -0.02240
H3866       H  0.43941022  0.86751512  0.26803035     0.09920
H3867       H  0.47102334  0.86692222  0.30243096     0.07940
Br3868     Br  0.46589371  0.89358692  0.29837623    -0.02670
C3869       C  0.39415388  0.84531836  0.11381819    -0.09300
C3870       C  0.39305332  0.85795595  0.11020762     0.06900
C3871       C  0.38379948  0.86554939  0.11581767    -0.03070
C3872       C  0.37556302  0.86030791  0.12458749    -0.07520
C3873       C  0.37646314  0.84756909  0.12819620     0.06010
C3874       C  0.38616952  0.84012048  0.12291306    -0.02540
Br3875     Br  0.38980250  0.82316685  0.12800528    -0.02240
H3876       H  0.40127538  0.83944213  0.10948259     0.09920
H3877       H  0.36822078  0.86625943  0.12839554     0.07940
Br3878     Br  0.38130913  0.88286206  0.11120584    -0.02670
C3879       C  0.36116610  0.88304416  0.21470222    -0.09300
C3880       C  0.36526017  0.87046776  0.21489545     0.06900
C3881       C  0.37605861  0.86726065  0.22199886    -0.03070
C3882       C  0.38234287  0.87656954  0.22890753    -0.07520
C3883       C  0.37826327  0.88914737  0.22864360     0.06010
C3884       C  0.36756622  0.89236424  0.22147133    -0.02540
Br3885     Br  0.36093447  0.90916320  0.22104349    -0.02240
H3886       H  0.35291871  0.88564140  0.20924001     0.09920
H3887       H  0.39072269  0.87403766  0.23420155     0.07940
Br3888     Br  0.38350417  0.85077872  0.22167759    -0.02670
C3889       C  0.95622898  0.56029153  0.94265440    -0.09300
C3890       C  0.95848786  0.57246511  0.93803518     0.06900
C3891       C  0.97096203  0.57645668  0.93595141    -0.03070
C3892       C  0.98096662  0.56840619  0.93886721    -0.07520
C3893       C  0.97872089  0.55626612  0.94356534     0.06010
C3894       C  0.96622753  0.55213042  0.94530226    -0.02540
Br3895     Br  0.96231511  0.53586262  0.95214808    -0.02240
H3896       H  0.94664676  0.55716380  0.94430029     0.09920
H3897       H  0.99055694  0.57168020  0.93759161     0.07940
Br3898     Br  0.97487373  0.59307754  0.93003646    -0.02670
C3899       C  0.06391448  0.55194635  0.00954686    -0.09300
C3900       C  0.05512887  0.54212297  0.01001021     0.06900
C3901       C  0.05258844  0.53617771  0.02153969    -0.03070
C3902       C  0.05885146  0.54011590  0.03244252    -0.07520
C3903       C  0.06791283  0.54980126  0.03206750     0.06010
C3904       C  0.07049405  0.55569145  0.02037518    -0.02540
Br3905     Br  0.08366215  0.56786623  0.01798799    -0.02240
H3906       H  0.06599778  0.55641112  0.00060592     0.09920
H3907       H  0.05663431  0.53550236  0.04126492     0.07940
Br3908     Br  0.04046144  0.52282145  0.02290596    -0.02670
C3909       C  0.04079728  0.47714132  0.91784998    -0.09300
C3910       C  0.04219627  0.47574238  0.93096272     0.06900
C3911       C  0.04772297  0.46461073  0.93574799    -0.03070
C3912       C  0.05167549  0.45519615  0.92742082    -0.07520
C3913       C  0.05005787  0.45659967  0.91438844     0.06010
C3914       C  0.04464286  0.46766123  0.90958785    -0.02540
Br3915     Br  0.04227862  0.47013870  0.89182301    -0.02240
H3916       H  0.03666265  0.48563571  0.91398976     0.09920
H3917       H  0.05560956  0.44654094  0.93114662     0.07940
Br3918     Br  0.04898408  0.46105681  0.95345476    -0.02670
C3919       C  0.56193297  0.93014613  0.95941359    -0.09300
C3920       C  0.57426706  0.93487134  0.95904276     0.06900
C3921       C  0.57849689  0.94293130  0.96867215    -0.03070
C3922       C  0.57041069  0.94614436  0.97849936    -0.07520
C3923       C  0.55791853  0.94168972  0.97883732     0.06010
C3924       C  0.55366330  0.93364054  0.96906476    -0.02540
Br3925     Br  0.53648752  0.92813565  0.96742195    -0.02240
H3926       H  0.55854552  0.92416348  0.95184190     0.09920
H3927       H  0.57397413  0.95218833  0.98592521     0.07940
Br3928     Br  0.59534176  0.94955652  0.96901494    -0.02670
C3929       C  0.55386259  0.00974799  0.06182282    -0.09300
C3930       C  0.54316524  0.01011291  0.05407816     0.06900
C3931       C  0.53630844  0.02133627  0.05291241    -0.03070
C3932       C  0.54026810  0.03207831  0.05939056    -0.07520
C3933       C  0.55088552  0.03182857  0.06740099     0.06010
C3934       C  0.55766970  0.02038762  0.06866170    -0.02540
Br3935     Br  0.57134853  0.01796988  0.08030968    -0.02240
H3936       H  0.55902968  0.00100554  0.06287755     0.09920
H3937       H  0.53493609  0.04067376  0.05812997     0.07940
Br3938     Br  0.52154099  0.02246395  0.04246310    -0.02670
C3939       C  0.47854700  0.92021593  0.05221601    -0.09300
C3940       C  0.47792220  0.93059322  0.04411401     0.06900
C3941       C  0.46618983  0.93465395  0.03949266    -0.03070
C3942       C  0.45522456  0.92832206  0.04304492    -0.07520
C3943       C  0.45573482  0.91793695  0.05123912     0.06010
C3944       C  0.46758527  0.91384627  0.05581868    -0.02540
Br3945     Br  0.46970334  0.89910030  0.06607582    -0.02240
H3946       H  0.48762031  0.91698712  0.05564941     0.09920
H3947       H  0.44624593  0.93152943  0.03935933     0.07940
Br3948     Br  0.46476191  0.94849618  0.02795075    -0.02670
C3949       C  0.05668723  0.52282197  0.56944530    -0.09300
C3950       C  0.04949871  0.53357851  0.56651127     0.06900
C3951       C  0.03954084  0.53243486  0.55764190    -0.03070
C3952       C  0.03652619  0.52064006  0.55260023    -0.07520
C3953       C  0.04354402  0.50996312  0.55580218     0.06010
C3954       C  0.05385458  0.51111618  0.56406600    -0.02540
Br3955     Br  0.06402761  0.49686887  0.56856811    -0.02240
H3956       H  0.06438178  0.52341027  0.57615251     0.09920
H3957       H  0.02881756  0.51983107  0.54591225     0.07940
Br3958     Br  0.03031278  0.54654994  0.55105871    -0.02670
C3959       C  0.97749756  0.42359720  0.55450747    -0.09300
C3960       C  0.97635770  0.43135604  0.54390327     0.06900
C3961       C  0.96525127  0.43101534  0.53668503    -0.03070
C3962       C  0.95547815  0.42290579  0.54008898    -0.07520
C3963       C  0.95664484  0.41473582  0.55048771     0.06010
C3964       C  0.96787953  0.41516583  0.55775581    -0.02540
Br3965     Br  0.97151599  0.40376793  0.57132893    -0.02240
H3966       H  0.98617866  0.42366443  0.55992769     0.09920
H3967       H  0.94694703  0.42299016  0.53446356     0.07940
Br3968     Br  0.96298235  0.44150977  0.52212138    -0.02670
C3969       C  0.05400280  0.44998795  0.46851204    -0.09300
C3970       C  0.05541777  0.44234274  0.47913484     0.06900
C3971       C  0.06297819  0.43152088  0.47846624    -0.03070
C3972       C  0.06954996  0.42883190  0.46737087    -0.07520
C3973       C  0.06846764  0.43666212  0.45670894     0.06010
C3974       C  0.06016403  0.44711531  0.45725683    -0.02540
Br3975     Br  0.05566363  0.45727767  0.44295075    -0.02240
H3976       H  0.04784301  0.45811864  0.46891562     0.09920
H3977       H  0.07569624  0.42070094  0.46719858     0.07940
Br3978     Br  0.06485723  0.42040428  0.49259880    -0.02670
C3979       C  0.43944631  0.54732361  0.96731318    -0.09300
C3980       C  0.43242622  0.54205169  0.97723701     0.06900
C3981       C  0.41916681  0.54121127  0.97600124    -0.03070
C3982       C  0.41335126  0.54505290  0.96479012    -0.07520
C3983       C  0.42047788  0.54997634  0.95486479     0.06010
C3984       C  0.43356557  0.55130183  0.95621561    -0.02540
Br3985     Br  0.44375062  0.55829412  0.94304296    -0.02240
H3986       H  0.44959949  0.54813596  0.96804988     0.09920
H3987       H  0.40321272  0.54420146  0.96380005     0.07940
Br3988     Br  0.40830688  0.53580164  0.98939560    -0.02670
C3989       C  0.52002355  0.55148857  0.04966018    -0.09300
C3990       C  0.51017075  0.55708586  0.04274854     0.06900
C3991       C  0.51095735  0.57007947  0.03983205    -0.03070
C3992       C  0.52173766  0.57689868  0.04316007    -0.07520
C3993       C  0.53158272  0.57120100  0.04983532     0.06010
C3994       C  0.53062082  0.55845846  0.05329500    -0.02540
Br3995     Br  0.54379654  0.55001366  0.06239917    -0.02240
H3996       H  0.51963475  0.54157855  0.05204174     0.09920
H3997       H  0.52233525  0.58680225  0.04076146     0.07940
Br3998     Br  0.49739793  0.57953072  0.03241346    -0.02670
C3999       C  0.43554581  0.47675301  0.06345190    -0.09300
C4000       C  0.44677298  0.47595030  0.05660688     0.06900
C4001       C  0.45430249  0.46514225  0.05768829    -0.03070
C4002       C  0.45056669  0.45533073  0.06560078    -0.07520
C4003       C  0.43948449  0.45615068  0.07284153     0.06010
C4004       C  0.43193400  0.46710819  0.07169568    -0.02540
Br4005     Br  0.41733846  0.47034790  0.08183510    -0.02240
H4006       H  0.42982972  0.48518384  0.06278101     0.09920
H4007       H  0.45644351  0.44701803  0.06605152     0.07940
Br4008     Br  0.46965086  0.46323968  0.04834434    -0.02670
C4009       C  0.53580838  0.96626231  0.43212871    -0.09300
C4010       C  0.54288428  0.97730297  0.43072685     0.06900
C4011       C  0.55331069  0.97735968  0.42256792    -0.03070
C4012       C  0.55626470  0.96653218  0.41566146    -0.07520
C4013       C  0.54907497  0.95546282  0.41686893     0.06010
C4014       C  0.53894697  0.95531019  0.42552685    -0.02540
Br4015     Br  0.52973360  0.94034334  0.42983262    -0.02240
H4016       H  0.52797660  0.96607633  0.43866118     0.09920
H4017       H  0.56409074  0.96686469  0.40913920     0.07940
Br4018     Br  0.56336055  0.99216977  0.41999683    -0.02670
C4019       C  0.57557501  0.05024841  0.52165047    -0.09300
C4020       C  0.56880167  0.04901196  0.53292444     0.06900
C4021       C  0.55619007  0.04485539  0.53251155    -0.03070
C4022       C  0.55057893  0.04197441  0.52092024    -0.07520
C4023       C  0.55744983  0.04289166  0.50968659     0.06010
C4024       C  0.57003902  0.04708977  0.51007798    -0.02540
Br4025     Br  0.57984431  0.04918246  0.49505598    -0.02240
H4026       H  0.58526694  0.05347652  0.52187336     0.09920
H4027       H  0.54084618  0.03886608  0.52068281     0.07940
Br4028     Br  0.54605493  0.04349101  0.54740620    -0.02670
C4029       C  0.47249944  0.05495167  0.43433457    -0.09300
C4030       C  0.47671261  0.05554369  0.44689575     0.06900
C4031       C  0.47016188  0.06332539  0.45544792    -0.03070
C4032       C  0.46013796  0.07071030  0.45121114    -0.07520
C4033       C  0.45587020  0.07018212  0.43865766     0.06010
C4034       C  0.46209847  0.06198329  0.43019575    -0.02540
Br4035     Br  0.45646013  0.05886679  0.41326524    -0.02240
H4036       H  0.47724740  0.04886776  0.42767155     0.09920
H4037       H  0.45548004  0.07674562  0.45796920     0.07940
Br4038     Br  0.47326546  0.06343337  0.47331294    -0.02670
C4039       C  0.19926519  0.31912762  0.75987454    -0.09300
C4040       C  0.19496113  0.30659963  0.75934956     0.06900
C4041       C  0.18719991  0.30205323  0.76917554    -0.03070
C4042       C  0.18376051  0.31010069  0.77903470    -0.07520
C4043       C  0.18826518  0.32249827  0.77954864     0.06010
C4044       C  0.19609445  0.32700355  0.76990544    -0.02540
Br4045     Br  0.20240670  0.34394907  0.76984135    -0.02240
H4046       H  0.20512485  0.32287853  0.75242727     0.09920
H4047       H  0.17795812  0.30651270  0.78662030     0.07940
Br4048     Br  0.18203455  0.28477319  0.77057514    -0.02670
C4049       C  0.18543190  0.21580961  0.69635857    -0.09300
C4050       C  0.18083868  0.22787262  0.69362093     0.06900
C4051       C  0.16893747  0.22920770  0.68786515    -0.03070
C4052       C  0.16164438  0.21853581  0.68527842    -0.07520
C4053       C  0.16594711  0.20649615  0.68859423     0.06010
C4054       C  0.17805994  0.20513634  0.69397844    -0.02540
Br4055     Br  0.18521688  0.18897727  0.69782657    -0.02240
H4056       H  0.19464985  0.21471535  0.70066002     0.09920
H4057       H  0.15243245  0.21967136  0.68098362     0.07940
Br4058     Br  0.16238398  0.24537135  0.68312735    -0.02670
C4059       C  0.26290072  0.30182321  0.67758121    -0.09300
C4060       C  0.26318943  0.29040500  0.68417862     0.06900
C4061       C  0.27419172  0.28308292  0.68407186    -0.03070
C4062       C  0.28471724  0.28722982  0.67739972    -0.07520
C4063       C  0.28446304  0.29851070  0.67041925     0.06010
C4064       C  0.27329391  0.30583392  0.67051989    -0.02540
Br4065     Br  0.27084600  0.32063103  0.66041695    -0.02240
H4066       H  0.25435584  0.30741516  0.67754165     0.09920
H4067       H  0.29314819  0.28149991  0.67766589     0.07940
Br4068     Br  0.27544113  0.26751286  0.69318133    -0.02670
C4069       C  0.76321267  0.18112010  0.30861618    -0.09300
C4070       C  0.75943686  0.19376519  0.30777678     0.06900
C4071       C  0.76661258  0.20302082  0.31410151    -0.03070
C4072       C  0.77668231  0.19944050  0.32177851    -0.07520
C4073       C  0.78032654  0.18676750  0.32295711     0.06010
C4074       C  0.77364237  0.17756351  0.31594725    -0.02540
Br4075     Br  0.77865948  0.16023026  0.31493548    -0.02240
H4076       H  0.75802268  0.17393064  0.30352877     0.09920
H4077       H  0.78177012  0.20675151  0.32677353     0.07940
Br4078     Br  0.76413311  0.22080295  0.31178435    -0.02670
C4079       C  0.68429913  0.16544377  0.21453395    -0.09300
C4080       C  0.68799716  0.17070700  0.20296015     0.06900
C4081       C  0.69505886  0.18199238  0.20296040    -0.03070
C4082       C  0.69847010  0.18761857  0.21438751    -0.07520
C4083       C  0.69506743  0.18214369  0.22588531     0.06010
C4084       C  0.68783982  0.17104285  0.22595409    -0.02540
Br4085     Br  0.68228655  0.16346759  0.24138801    -0.02240
H4086       H  0.67883730  0.15681912  0.21471488     0.09920
H4087       H  0.70384725  0.19630185  0.21430987     0.07940
Br4088     Br  0.69971408  0.19061622  0.18776531    -0.02670
C4089       C  0.67365412  0.25760380  0.30292801    -0.09300
C4090       C  0.68134201  0.25893120  0.29229734     0.06900
C4091       C  0.68092790  0.27017180  0.28531838    -0.03070
C4092       C  0.67270896  0.27978582  0.28889402    -0.07520
C4093       C  0.66465305  0.27839363  0.29931539     0.06010
C4094       C  0.66521685  0.26711676  0.30639704    -0.02540
Br4095     Br  0.65398345  0.26342447  0.32005441    -0.02240
H4096       H  0.67381709  0.24888459  0.30823371     0.09920
H4097       H  0.67266530  0.28841828  0.28346419     0.07940
Br4098     Br  0.69170402  0.27304041  0.27109595    -0.02670
C4099       C  0.93269932  0.97716459  0.56534730    -0.09300
C4100       C  0.94414081  0.97693589  0.55881326     0.06900
C4101       C  0.95190377  0.96624861  0.55961314    -0.03070
C4102       C  0.94813921  0.95597985  0.56689608    -0.07520
C4103       C  0.93676697  0.95618228  0.57368915     0.06010
C4104       C  0.92904414  0.96702889  0.57293317    -0.02540
Br4105     Br  0.91408969  0.96933904  0.58280659    -0.02240
H4106       H  0.92680308  0.98548577  0.56492147     0.09920
H4107       H  0.95414702  0.94774679  0.56712423     0.07940
Br4108     Br  0.96747753  0.96496450  0.55053006    -0.02670
C4109       C  0.01768044  0.05195325  0.55204936    -0.09300
C4110       C  0.00857817  0.05687208  0.54372814     0.06900
C4111       C  0.00971560  0.06953088  0.53971496    -0.03070
C4112       C  0.02024461  0.07659878  0.54330532    -0.07520
C4113       C  0.02945294  0.07150401  0.55126831     0.06010
C4114       C  0.02801867  0.05918688  0.55589270    -0.02540
Br4115     Br  0.04031858  0.05156603  0.56678178    -0.02240
H4116       H  0.01697507  0.04231564  0.55531497     0.09920
H4117       H  0.02122090  0.08618376  0.53993524     0.07940
Br4118     Br  0.99695953  0.07819728  0.53020134    -0.02670
C4119       C  0.93494721  0.03857200  0.46736412    -0.09300
C4120       C  0.93082389  0.04186295  0.47944521     0.06900
C4121       C  0.91959975  0.04876473  0.48086903    -0.03070
C4122       C  0.91242443  0.05189317  0.47024504    -0.07520
C4123       C  0.91619290  0.04802057  0.45819334     0.06010
C4124       C  0.92770044  0.04151830  0.45675054    -0.02540
Br4125     Br  0.93424827  0.03683561  0.44055590    -0.02240
H4126       H  0.94369018  0.03342870  0.46621327     0.09920
H4127       H  0.90369038  0.05703451  0.47143410     0.07940
Br4128     Br  0.91387515  0.05434655  0.49707164    -0.02670
C4129       C  0.17235376  0.76450101  0.78359310    -0.09300
C4130       C  0.17976074  0.75883362  0.79302653     0.06900
C4131       C  0.17886357  0.76348385  0.80549865    -0.03070
C4132       C  0.17120694  0.77391713  0.80805381    -0.07520
C4133       C  0.16402552  0.77968759  0.79851937     0.06010
C4134       C  0.16436095  0.77457197  0.78624565    -0.02540
Br4135     Br  0.15336609  0.77992212  0.77284248    -0.02240
H4136       H  0.17263337  0.76103202  0.77400459     0.09920
H4137       H  0.17087659  0.77752107  0.81760023     0.07940
Br4138     Br  0.18681779  0.75562929  0.81975088    -0.02670
C4139       C  0.20275758  0.67180406  0.72275391    -0.09300
C4140       C  0.19363574  0.67940698  0.72857767     0.06900
C4141       C  0.18130283  0.67963716  0.72341015    -0.03070
C4142       C  0.17864839  0.67297090  0.71230992    -0.07520
C4143       C  0.18792919  0.66572841  0.70632115     0.06010
C4144       C  0.19998110  0.66484161  0.71193274    -0.02540
Br4145     Br  0.21280659  0.65348507  0.70612308    -0.02240
H4146       H  0.21219230  0.67119259  0.72661997     0.09920
H4147       H  0.16924331  0.67347636  0.70832619     0.07940
Br4148     Br  0.16729640  0.68786854  0.73133198    -0.02670
C4149       C  0.27108739  0.69223818  0.80172639    -0.09300
C4150       C  0.25940311  0.69321749  0.80778258     0.06900
C4151       C  0.25850771  0.69042029  0.82073014    -0.03070
C4152       C  0.26930996  0.68693583  0.82747794    -0.07520
C4153       C  0.28105614  0.68640956  0.82150760     0.06010
C4154       C  0.28192205  0.68900052  0.80852844    -0.02540
Br4155     Br  0.29768582  0.68821348  0.79974117    -0.02240
H4156       H  0.27183514  0.69431518  0.79175509     0.09920
H4157       H  0.26859435  0.68489641  0.83745784     0.07940
Br4158     Br  0.24272040  0.69088509  0.82949418    -0.02670
C4159       C  0.80528170  0.18172026  0.76575590    -0.09300
C4160       C  0.79289475  0.18024668  0.76123262     0.06900
C4161       C  0.78429082  0.17302815  0.76834340    -0.03070
C4162       C  0.78822566  0.16737943  0.77957678    -0.07520
C4163       C  0.80058459  0.16888996  0.78414234     0.06010
C4164       C  0.80916732  0.17619576  0.77710185    -0.02540
Br4165     Br  0.82591524  0.17998943  0.78289250    -0.02240
H4166       H  0.81196609  0.18737055  0.76051603     0.09920
H4167       H  0.78146494  0.16188396  0.78487515     0.07940
Br4168     Br  0.76673423  0.17145905  0.76411905    -0.02670
C4169       C  0.72763794  0.19719702  0.66788593    -0.09300
C4170       C  0.72850614  0.19253310  0.68027172     0.06900
C4171       C  0.71870655  0.18472485  0.68484302    -0.03070
C4172       C  0.70851710  0.18165419  0.67697213    -0.07520
C4173       C  0.70764042  0.18656602  0.66473836     0.06010
C4174       C  0.71730035  0.19438800  0.66019981    -0.02540
Br4175     Br  0.71703645  0.20114413  0.64341997    -0.02240
H4176       H  0.73505717  0.20307607  0.66409426     0.09920
H4177       H  0.70096760  0.17581739  0.68059728     0.07940
Br4178     Br  0.71779665  0.17898576  0.70197946    -0.02670
C4179       C  0.81045679  0.27875177  0.68532980    -0.09300
C4180       C  0.82321450  0.27807137  0.68871956     0.06900
C4181       C  0.82752243  0.26789235  0.69598909    -0.03070
C4182       C  0.81908156  0.25854330  0.69976456    -0.07520
C4183       C  0.80620268  0.25924191  0.69662077     0.06010
C4184       C  0.80189004  0.26956975  0.68936333    -0.02540
Br4185     Br  0.78439567  0.27255640  0.68573453    -0.02240
H4186       H  0.80704862  0.28676754  0.67999575     0.09920
H4187       H  0.82266023  0.25067727  0.70518933     0.07940
Br4188     Br  0.84490447  0.26625509  0.70079330    -0.02670
C4189       C  0.77098310  0.78461620  0.18023776    -0.09300
C4190       C  0.76048306  0.79260193  0.18030898     0.06900
C4191       C  0.76089459  0.80394225  0.17343838    -0.03070
C4192       C  0.77158957  0.80689956  0.16633368    -0.07520
C4193       C  0.78205776  0.79879131  0.16603420     0.06010
C4194       C  0.78180663  0.78769801  0.17342429    -0.02540
Br4195     Br  0.79613575  0.77687685  0.17573055    -0.02240
H4196       H  0.77086712  0.77603932  0.18577424     0.09920
H4197       H  0.77159670  0.81546955  0.16079872     0.07940
Br4198     Br  0.74685279  0.81531154  0.17271053    -0.02670
C4199       C  0.67177026  0.72829252  0.19007378    -0.09300
C4200       C  0.68331033  0.72586886  0.19607446     0.06900
C4201       C  0.68697870  0.71337642  0.19842220    -0.03070
C4202       C  0.67893034  0.70349451  0.19507909    -0.07520
C4203       C  0.66729979  0.70586946  0.18917369     0.06010
C4204       C  0.66380488  0.71839694  0.18648864    -0.02540
Br4205     Br  0.64792086  0.72260684  0.17887092    -0.02240
H4206       H  0.66888474  0.73792464  0.18832433     0.09920
H4207       H  0.68173853  0.69390703  0.19716216     0.07940
Br4208     Br  0.70256912  0.70942354  0.20674773    -0.02670
C4209       C  0.70423078  0.81584044  0.26377254    -0.09300
C4210       C  0.69499456  0.80792130  0.25849193     0.06900
C4211       C  0.68283310  0.80777657  0.26391997    -0.03070
C4212       C  0.68036651  0.81507492  0.27462981    -0.07520
C4213       C  0.68971110  0.82277570  0.28002454     0.06010
C4214       C  0.70167978  0.82332665  0.27428079    -0.02540
Br4215     Br  0.71468410  0.83482436  0.27950926    -0.02240
H4216       H  0.71356034  0.81628953  0.25968949     0.09920
H4217       H  0.67105568  0.81469618  0.27877579     0.07940
Br4218     Br  0.66883172  0.79873619  0.25679199    -0.02670
C4219       C  0.30658247  0.76234701  0.18399791    -0.09300
C4220       C  0.30747542  0.75806683  0.19649669     0.06900
C4221       C  0.31537761  0.76460683  0.20500311    -0.03070
C4222       C  0.32255839  0.77475983  0.20077673    -0.07520
C4223       C  0.32173716  0.77907798  0.18827720     0.06010
C4224       C  0.31345104  0.77282519  0.17986520    -0.02540
Br4225     Br  0.31001384  0.77854791  0.16303880    -0.02240
H4226       H  0.30039566  0.75758500  0.17738913     0.09920
H4227       H  0.32867379  0.77946687  0.20748067     0.07940
Br4228     Br  0.31591889  0.76124650  0.22280084    -0.02670
C4229       C  0.21757566  0.70040911  0.18234627    -0.09300
C4230       C  0.22839774  0.69297369  0.18117497     0.06900
C4231       C  0.22818700  0.68241624  0.17315840    -0.03070
C4232       C  0.21727562  0.67961148  0.16625017    -0.07520
C4233       C  0.20641904  0.68712671  0.16727664     0.06010
C4234       C  0.20655867  0.69746714  0.17569801    -0.02540
Br4235     Br  0.19187094  0.70727825  0.17958957    -0.02240
H4236       H  0.21760778  0.70838446  0.18872841     0.09920
H4237       H  0.21736664  0.67163972  0.15987450     0.07940
Br4238     Br  0.24275640  0.67199522  0.17076180    -0.02670
C4239       C  0.29142766  0.68477277  0.27092078    -0.09300
C4240       C  0.29498778  0.67860033  0.25982825     0.06900
C4241       C  0.30192335  0.66735964  0.26053361    -0.03070
C4242       C  0.30507057  0.66232905  0.27231595    -0.07520
C4243       C  0.30126413  0.66832374  0.28348773     0.06010
C4244       C  0.29446023  0.67972827  0.28271508    -0.02540
Br4245     Br  0.28972148  0.68927647  0.29732776    -0.02240
H4246       H  0.28628856  0.69357592  0.27039102     0.09920
H4247       H  0.31030677  0.65358418  0.27273926     0.07940
Br4248     Br  0.30748788  0.65877156  0.24564825    -0.02670
C4249       C  0.42503988  0.43107505  0.50944624    -0.09300
C4250       C  0.43162125  0.44251233  0.50980765     0.06900
C4251       C  0.43065369  0.45025752  0.52050448    -0.03070
C4252       C  0.42307584  0.44655143  0.53057487    -0.07520
C4253       C  0.41609599  0.43526773  0.53017413     0.06010
C4254       C  0.41714699  0.42747956  0.51937917    -0.02540
Br4255     Br  0.40728904  0.41252632  0.51679375    -0.02240
H4256       H  0.42561384  0.42516731  0.50113410     0.09920
H4257       H  0.42270678  0.45259315  0.53878515     0.07940
Br4258     Br  0.43981451  0.46579525  0.52204954    -0.02670
C4259       C  0.52150558  0.43370082  0.44452562    -0.09300
C4260       C  0.50937469  0.42861298  0.44318359     0.06900
C4261       C  0.50793631  0.41630444  0.43840828    -0.03070
C4262       C  0.51859015  0.40917126  0.43538302    -0.07520
C4263       C  0.53073551  0.41403559  0.43730498     0.06010
C4264       C  0.53216904  0.42648316  0.44174487    -0.02540
Br4265     Br  0.54841976  0.43420704  0.44382367    -0.02240
H4266       H  0.52269634  0.44320325  0.44807298     0.09920
H4267       H  0.51739547  0.39966715  0.43184917     0.07940
Br4268     Br  0.49164727  0.40894410  0.43553315    -0.02670
C4269       C  0.43589212  0.53105115  0.43199908    -0.09300
C4270       C  0.43853837  0.53166307  0.41910639     0.06900
C4271       C  0.44476481  0.52157125  0.41324325    -0.03070
C4272       C  0.44830211  0.51103927  0.42033455    -0.07520
C4273       C  0.44584085  0.51040550  0.43334123     0.06010
C4274       C  0.43959077  0.52063041  0.43918743    -0.02540
Br4275     Br  0.43696500  0.52177245  0.45705260    -0.02240
H4276       H  0.43135035  0.53894753  0.43659121     0.09920
H4277       H  0.45301592  0.50331447  0.41563453     0.07940
Br4278     Br  0.44860706  0.52178806  0.39558276    -0.02670
C4279       C  0.78467332  0.81214916  0.72103265    -0.09300
C4280       C  0.79396915  0.80603262  0.72821853     0.06900
C4281       C  0.80662403  0.80648888  0.72406804    -0.03070
C4282       C  0.80950698  0.81217773  0.71255882    -0.07520
C4283       C  0.80012733  0.81790084  0.70517802     0.06010
C4284       C  0.78764547  0.81825487  0.70977330    -0.02540
Br4285     Br  0.77437454  0.82784512  0.70201187    -0.02240
H4286       H  0.77497305  0.81223804  0.72416834     0.09920
H4287       H  0.81920913  0.81218237  0.70940160     0.07940
Br4288     Br  0.82068113  0.80067852  0.73394349    -0.02670
C4289       C  0.72350074  0.78086159  0.81616017    -0.09300
C4290       C  0.72896484  0.79057069  0.80900921     0.06900
C4291       C  0.72413914  0.80292785  0.81034530    -0.03070
C4292       C  0.71384098  0.80512283  0.81829003    -0.07520
C4293       C  0.70837886  0.79534010  0.82532746     0.06010
C4294       C  0.71359082  0.78315174  0.82444308    -0.02540
Br4295     Br  0.70867162  0.76936295  0.83508620    -0.02240
H4296       H  0.72704489  0.77133373  0.81549965     0.09920
H4297       H  0.71012587  0.81459367  0.81899542     0.07940
Br4298     Br  0.73156029  0.81749860  0.80263397    -0.02670
C4299       C  0.80791799  0.72215484  0.80376648    -0.09300
C4300       C  0.80802947  0.72628255  0.79117939     0.06900
C4301       C  0.81541468  0.71964292  0.78234469    -0.03070
C4302       C  0.82305616  0.70975574  0.78636341    -0.07520
C4303       C  0.82311362  0.70569647  0.79896249     0.06010
C4304       C  0.81514502  0.71183484  0.80767270    -0.02540
Br4305     Br  0.81259881  0.70609612  0.82463526    -0.02240
H4306       H  0.80208633  0.72690694  0.81064308     0.09920
H4307       H  0.82885440  0.70506125  0.77942596     0.07940
Br4308     Br  0.81467594  0.72240355  0.76444700    -0.02670
C4309       C  0.30380431  0.32304249  0.21838658    -0.09300
C4310       C  0.30020077  0.31880202  0.20636605     0.06900
C4311       C  0.29401617  0.30707264  0.20517050    -0.03070
C4312       C  0.29118052  0.30005214  0.21595084    -0.07520
C4313       C  0.29428636  0.30459421  0.22796288     0.06010
C4314       C  0.30078986  0.31608749  0.22916124    -0.02540
Br4315     Br  0.30592049  0.32250492  0.24529566    -0.02240
H4316       H  0.30869044  0.33195038  0.21942570     0.09920
H4317       H  0.28630821  0.29112625  0.21497539     0.07940
Br4318     Br  0.28972394  0.29986639  0.18911114    -0.02670
C4319       C  0.31668928  0.22326516  0.29057093    -0.09300
C4320       C  0.30371962  0.22417753  0.29310849     0.06900
C4321       C  0.29769605  0.21416245  0.29953164    -0.03070
C4322       C  0.30469233  0.20365862  0.30333786    -0.07520
C4323       C  0.31755511  0.20278421  0.30064055     0.06010
C4324       C  0.32358767  0.21266210  0.29422851    -0.02540
Br4325     Br  0.34121846  0.21204974  0.29027447    -0.02240
H4326       H  0.32151033  0.23083049  0.28571585     0.09920
H4327       H  0.29997808  0.19591961  0.30803052     0.07940
Br4328     Br  0.27982768  0.21343819  0.30228897    -0.02670
C4329       C  0.22928934  0.29095032  0.32059265    -0.09300
C4330       C  0.22854904  0.29291500  0.30750220     0.06900
C4331       C  0.21743704  0.29819317  0.30234071    -0.03070
C4332       C  0.20739827  0.30132964  0.31029357    -0.07520
C4333       C  0.20818339  0.29915459  0.32330003     0.06010
C4334       C  0.21921427  0.29397323  0.32845647    -0.02540
Br4335     Br  0.22080354  0.29064566  0.34616570    -0.02240
H4336       H  0.23772350  0.28694964  0.32474866     0.09920
H4337       H  0.19878095  0.30508507  0.30626960     0.07940
Br4338     Br  0.21478892  0.30016724  0.28453595    -0.02670
C4339       C  0.91988948  0.94401794  0.01233807    -0.09300
C4340       C  0.93289799  0.94173336  0.01138892     0.06900
C4341       C  0.93923386  0.93582591  0.02154216    -0.03070
C4342       C  0.93249046  0.93228766  0.03228263    -0.07520
C4343       C  0.91957103  0.93473617  0.03319408     0.06010
C4344       C  0.91323306  0.94061181  0.02314506    -0.02540
Br4345     Br  0.89552446  0.94423302  0.02382222    -0.02240
H4346       H  0.91486593  0.94851164  0.00465258     0.09920
H4347       H  0.93743300  0.92802516  0.04015386     0.07940
Br4348     Br  0.95717997  0.93351387  0.02204362    -0.02670
C4349       C  0.94385764  0.01071273  0.92183273    -0.09300
C4350       C  0.94405251  0.01091470  0.93507520     0.06900
C4351       C  0.94038311  0.02199926  0.94144967    -0.03070
C4352       C  0.93674064  0.03260790  0.93453737    -0.07520
C4353       C  0.93658639  0.03235110  0.92134757     0.06010
C4354       C  0.94010340  0.02130480  0.91495963    -0.02540
Br4355     Br  0.94046916  0.02046462  0.89689395    -0.02240
H4356       H  0.94666981  0.00228993  0.91680630     0.09920
H4357       H  0.93425627  0.04118933  0.93946918     0.07940
Br4358     Br  0.94120781  0.02370421  0.95945251    -0.02670
C4359       C  0.00727047  0.91768665  0.93979767    -0.09300
C4360       C  0.00914241  0.93018058  0.94369619     0.06900
C4361       C  0.02147931  0.93506181  0.94438141    -0.03070
C4362       C  0.03171467  0.92732659  0.94143749    -0.07520
C4363       C  0.02983039  0.91482835  0.93756224     0.06010
C4364       C  0.01748921  0.91004368  0.93659569    -0.02540
Br4365     Br  0.01414391  0.89292501  0.93182896    -0.02240
H4366       H  0.99781665  0.91383077  0.93934919     0.09920
H4367       H  0.04119858  0.93105230  0.94225356     0.07940
Br4368     Br  0.02495335  0.95184394  0.95017054    -0.02670
loop_ 
_geom_bond_atom_site_label_1 
_geom_bond_atom_site_label_2 
_geom_bond_distance 
_geom_bond_site_symmetry_2 
_ccdc_geom_bond_type 
N1            N2   1.320       .  A
N1            C5   1.343       .  A
N1           Cu9   2.066       .  S
N2            C3   1.343       .  A
N2           Cu8   2.061       .  S
C3            C4   1.384       .  A
C3            H6   1.081       .  S
C4            C5   1.385       .  A
C4         C4340   1.477   1_556  S
C5            H7   1.082       .  S
Cu8          N11   2.062       .  S
Cu9          N19   2.067       .  S
Cu10         N12   2.073       .  S
Cu10         N18   2.074       .  S
N11          N12   1.322       .  A
N11          C15   1.342       .  A
N12          C13   1.346       .  A
C13          C14   1.383       .  A
C13          H16   1.082       .  S
C14          C15   1.379       .  A
C14        C4360   1.470   1_655  S
C15          H17   1.082       .  S
N18          N19   1.322       .  A
N18          C22   1.344       .  A
N19          C20   1.344       .  A
C20          C21   1.383       .  A
C20          H23   1.081       .  S
C21          C22   1.384       .  A
C21        C4350   1.476   1_565  S
C22          H24   1.082       .  S
N25          N26   1.324       .  A
N25          C29   1.344       .  A
N25         Cu33   2.073       .  S
N26          C27   1.346       .  A
N26         Cu32   2.076       .  S
C27          C28   1.381       .  A
C27          H30   1.082       .  S
C28          C29   1.380       .  A
C28        C4313   1.469       .  S
C29          H31   1.082       .  S
Cu32         N35   2.076       .  S
Cu33         N43   2.072       .  S
Cu34         N36   2.061       .  S
Cu34         N42   2.061       .  S
N35          N36   1.320       .  A
N35          C39   1.345       .  A
N36          C37   1.342       .  A
C37          C38   1.384       .  A
C37          H40   1.081       .  S
C38          C39   1.388       .  A
C38        C4320   1.482       .  S
C39          H41   1.082       .  S
N42          N43   1.320       .  A
N42          C46   1.341       .  A
N43          C44   1.346       .  A
C44          C45   1.387       .  A
C44          H47   1.081       .  S
C45          C46   1.383       .  A
C45        C4330   1.480       .  S
C46          H48   1.082       .  S
N49          N50   1.320       .  A
N49          C53   1.344       .  A
N49         Cu57   2.075       .  S
N50          C51   1.340       .  A
N50         Cu56   2.051       .  S
C51          C52   1.383       .  A
C51          H54   1.080       .  S
C52          C53   1.390       .  A
C52        C4280   1.482       .  S
C53          H55   1.081       .  S
Cu56         N59   2.051       .  S
Cu57         N67   2.076       .  S
Cu58         N60   2.064       .  S
Cu58         N66   2.066       .  S
N59          N60   1.318       .  A
N59          C63   1.339       .  A
N60          C61   1.344       .  A
C61          C62   1.388       .  A
C61          H64   1.082       .  S
C62          C63   1.384       .  A
C62        C4300   1.481       .  S
C63          H65   1.080       .  S
N66          N67   1.321       .  A
N66          C70   1.339       .  A
N67          C68   1.346       .  A
C68          C69   1.390       .  A
C68          H71   1.079       .  S
C69          C70   1.386       .  A
C69        C4290   1.488       .  S
C70          H72   1.081       .  S
N73          N74   1.321       .  A
N73          C77   1.346       .  A
N73         Cu81   2.070       .  S
N74          C75   1.343       .  A
N74         Cu80   2.064       .  S
C75          C76   1.381       .  A
C75          H78   1.082       .  S
C76          C77   1.383       .  A
C76        C4250   1.471       .  S
C77          H79   1.082       .  S
Cu80         N83   2.064       .  S
Cu81         N91   2.071       .  S
Cu82         N84   2.079       .  S
Cu82         N90   2.079       .  S
N83          N84   1.321       .  A
N83          C87   1.343       .  A
N84          C85   1.345       .  A
C85          C86   1.388       .  A
C85          H88   1.082       .  S
C86          C87   1.385       .  A
C86        C4273   1.484       .  S
C87          H89   1.081       .  S
N90          N91   1.323       .  A
N90          C94   1.346       .  A
N91          C92   1.343       .  A
C92          C93   1.381       .  A
C92          H95   1.082       .  S
C93          C94   1.383       .  A
C93        C4260   1.473       .  S
C94          H96   1.082       .  S
N97          N98   1.322       .  A
N97         C101   1.346       .  A
N97        Cu105   2.075       .  S
N98          C99   1.342       .  A
N98        Cu104   2.057       .  S
C99         C100   1.378       .  A
C99         H102   1.082       .  S
C100        C101   1.383       .  A
C100       C4240   1.466       .  S
C101        H103   1.082       .  S
Cu104       N107   2.057       .  S
Cu105       N115   2.076       .  S
Cu106       N108   2.071       .  S
Cu106       N114   2.072       .  S
N107        N108   1.320       .  A
N107        C111   1.341       .  A
N108        C109   1.345       .  A
C109        C110   1.388       .  A
C109        H112   1.082       .  S
C110        C111   1.383       .  A
C110       C4220   1.481       .  S
C111        H113   1.080       .  S
N114        N115   1.324       .  A
N114        C118   1.344       .  A
N115        C116   1.345       .  A
C116        C117   1.382       .  A
C116        H119   1.082       .  S
C117        C118   1.380       .  A
C117       C4230   1.471       .  S
C118        H120   1.082       .  S
N121        N122   1.320       .  A
N121        C125   1.345       .  A
N121       Cu129   2.068       .  S
N122        C123   1.342       .  A
N122       Cu128   2.070       .  S
C123        C124   1.387       .  A
C123        H126   1.081       .  S
C124        C125   1.387       .  A
C124       C4210   1.485       .  S
C125        H127   1.080       .  S
Cu128       N131   2.070       .  S
Cu129       N139   2.068       .  S
Cu130       N132   2.070       .  S
Cu130       N138   2.069       .  S
N131        N132   1.322       .  A
N131        C135   1.345       .  A
N132        C133   1.343       .  A
C133        C134   1.382       .  A
C133        H136   1.082       .  S
C134        C135   1.383       .  A
C134       C4190   1.474       .  S
C135        H137   1.082       .  S
N138        N139   1.323       .  A
N138        C142   1.345       .  A
N139        C140   1.343       .  A
C140        C141   1.379       .  A
C140        H143   1.082       .  S
C141        C142   1.381       .  A
C141       C4200   1.466       .  S
C142        H144   1.082       .  S
N145        N146   1.322       .  A
N145        C149   1.344       .  A
N145       Cu153   2.075       .  S
N146        C147   1.343       .  A
N146       Cu152   2.067       .  S
C147        C148   1.384       .  A
C147        H150   1.082       .  S
C148        C149   1.386       .  A
C148       C4160   1.481       .  S
C149        H151   1.081       .  S
Cu152       N155   2.067       .  S
Cu153       N163   2.075       .  S
Cu154       N156   2.065       .  S
Cu154       N162   2.065       .  S
N155        N156   1.320       .  A
N155        C159   1.342       .  A
N156        C157   1.344       .  A
C157        C158   1.386       .  A
C157        H160   1.081       .  S
C158        C159   1.387       .  A
C158       C4183   1.483       .  S
C159        H161   1.082       .  S
N162        N163   1.321       .  A
N162        C166   1.341       .  A
N163        C164   1.346       .  A
C164        C165   1.388       .  A
C164        H167   1.080       .  S
C165        C166   1.385       .  A
C165       C4170   1.485       .  S
C166        H168   1.082       .  S
N169        N170   1.319       .  A
N169        C173   1.342       .  A
N169       Cu177   2.070       .  S
N170        C171   1.343       .  A
N170       Cu176   2.062       .  S
C171        C172   1.387       .  A
C171        H174   1.080       .  S
C172        C173   1.389       .  A
C172       C4140   1.487       .  S
C173        H175   1.081       .  S
Cu176       N179   2.062       .  S
Cu177       N187   2.071       .  S
Cu178       N180   2.072       .  S
Cu178       N186   2.073       .  S
N179        N180   1.320       .  A
N179        C183   1.340       .  A
N180        C181   1.346       .  A
C181        C182   1.390       .  A
C181        H184   1.080       .  S
C182        C183   1.386       .  A
C182       C4130   1.487       .  S
C183        H185   1.081       .  S
N186        N187   1.323       .  A
N186        C190   1.344       .  A
N187        C188   1.345       .  A
C188        C189   1.380       .  A
C188        H191   1.082       .  S
C189        C190   1.381       .  A
C189       C4150   1.469       .  S
C190        H192   1.082       .  S
N193        N194   1.322       .  A
N193        C197   1.343   1_545  A
N193       Cu201   2.064       .  S
N194        C195   1.345   1_545  A
N194       Cu200   2.068       .  S
C195        C196   1.381       .  A
C195        H198   1.082       .  S
C196        C197   1.380       .  A
C196       C4100   1.468       .  S
C197        H199   1.082       .  S
Cu200       N203   2.068       .  S
Cu201       N211   2.064       .  S
Cu202       N204   2.064       .  S
Cu202       N210   2.064       .  S
N203        N204   1.322       .  A
N203        C207   1.343       .  A
N204        C205   1.344       .  A
C205        C206   1.380       .  A
C205        H208   1.082       .  S
C206        C207   1.380       .  A
C206       C4120   1.466       .  S
C207        H209   1.082       .  S
N210        N211   1.320       .  A
N210        C214   1.342       .  A
N211        C212   1.343       .  A
C212        C213   1.386       .  A
C212        H215   1.082       .  S
C213        C214   1.385       .  A
C213       C4110   1.480   1_655  S
C214        H216   1.080       .  S
N217        N218   1.323       .  A
N217        C221   1.346       .  A
N217       Cu225   2.077       .  S
N218        C219   1.343       .  A
N218       Cu224   2.065       .  S
C219        C220   1.378       .  A
C219        H222   1.082       .  S
C220        C221   1.382       .  A
C220       C4083   1.467       .  S
C221        H223   1.082       .  S
Cu224       N227   2.064       .  S
Cu225       N235   2.077       .  S
Cu226       N228   2.065       .  S
Cu226       N234   2.065       .  S
N227        N228   1.321       .  A
N227        C231   1.343       .  A
N228        C229   1.345       .  A
C229        C230   1.382       .  A
C229        H232   1.082       .  S
C230        C231   1.382       .  A
C230       C4090   1.470       .  S
C231        H233   1.082       .  S
N234        N235   1.322       .  A
N234        C238   1.341       .  A
N235        C236   1.347       .  A
C236        C237   1.387       .  A
C236        H239   1.082       .  S
C237        C238   1.383       .  A
C237       C4070   1.480       .  S
C238        H240   1.081       .  S
N241        N242   1.323       .  A
N241        C245   1.346       .  A
N241       Cu249   2.074       .  S
N242        C243   1.343       .  A
N242       Cu248   2.069       .  S
C243        C244   1.380       .  A
C243        H246   1.082       .  S
C244        C245   1.382       .  A
C244       C4050   1.469       .  S
C245        H247   1.082       .  S
Cu248       N251   2.068       .  S
Cu249       N259   2.074       .  S
Cu250       N252   2.061       .  S
Cu250       N258   2.061       .  S
N251        N252   1.320       .  A
N251        C255   1.345       .  A
N252        C253   1.341       .  A
C253        C254   1.385       .  A
C253        H256   1.082       .  S
C254        C255   1.387       .  A
C254       C4040   1.482       .  S
C255        H257   1.080       .  S
N258        N259   1.322       .  A
N258        C262   1.344       .  A
N259        C260   1.345       .  A
C260        C261   1.383       .  A
C260        H263   1.082       .  S
C261        C262   1.379       .  A
C261       C4060   1.468       .  S
C262        H264   1.082       .  S
N265        N266   1.321       .  A
N265        C269   1.343       .  A
N265       Cu273   2.059       .  S
N266        C267   1.346       .  A
N266       Cu272   2.074       .  S
C267        C268   1.384       .  A
C267        H270   1.082       .  S
C268        C269   1.380       .  A
C268       C4023   1.471       .  S
C269        H271   1.082       .  S
Cu272       N275   2.075       .  S
Cu273       N283   2.059       .  S
Cu274       N276   2.077       .  S
Cu274       N282   2.076       .  S
N275        N276   1.324       .  A
N275        C279   1.345   1_545  A
N276        C277   1.345   1_545  A
C277        C278   1.381       .  A
C277        H280   1.082       .  S
C278        C279   1.381       .  A
C278       C4010   1.471       .  S
C279        H281   1.082       .  S
N282        N283   1.320       .  A
N282        C286   1.346       .  A
N283        C284   1.341       .  A
C284        C285   1.384       .  A
C284        H287   1.080       .  S
C285        C286   1.389       .  A
C285       C4030   1.484       .  S
C286        H288   1.082       .  S
N289        N290   1.319       .  A
N289        C293   1.345       .  A
N289       Cu297   2.072       .  S
N290        C291   1.341       .  A
N290       Cu296   2.056       .  S
C291        C292   1.384       .  A
C291        H294   1.080       .  S
C292        C293   1.388       .  A
C292       C3990   1.482       .  S
C293        H295   1.082       .  S
Cu296       N299   2.057       .  S
Cu297       N307   2.073       .  S
Cu298       N300   2.072       .  S
Cu298       N306   2.073       .  S
N299        N300   1.320       .  A
N299        C303   1.341   1_554  A
N300        C301   1.345   1_554  A
C301        C302   1.388       .  A
C301        H304   1.081       .  S
C302        C303   1.383       .  A
C302       C3980   1.480       .  S
C303        H305   1.082       .  S
N306        N307   1.324       .  A
N306        C310   1.346       .  A
N307        C308   1.344       .  A
C308        C309   1.380       .  A
C308        H311   1.082       .  S
C309        C310   1.381       .  A
C309       C4000   1.469       .  S
C310        H312   1.082       .  S
N313        N314   1.322       .  A
N313        C317   1.343       .  A
N313       Cu321   2.067       .  S
N314        C315   1.345       .  A
N314       Cu320   2.064       .  S
C315        C316   1.380       .  A
C315        H318   1.082       .  S
C316        C317   1.380       .  A
C316       C3970   1.466       .  S
C317        H319   1.082       .  S
Cu320       N323   2.064       .  S
Cu321       N331   2.067       .  S
Cu322       N324   2.075       .  S
Cu322       N330   2.075       .  S
N323        N324   1.323       .  A
N323        C327   1.342   1_455  A
N324        C325   1.346   1_455  A
C325        C326   1.382       .  A
C325        H328   1.082       .  S
C326        C327   1.379       .  A
C326       C3960   1.467       .  S
C327        H329   1.082       .  S
N330        N331   1.323       .  A
N330        C334   1.345       .  A
N331        C332   1.344       .  A
C332        C333   1.379       .  A
C332        H335   1.082       .  S
C333        C334   1.381       .  A
C333       C3953   1.467       .  S
C334        H336   1.082       .  S
N337        N338   1.323       .  A
N337        C341   1.343       .  A
N337       Cu345   2.065       .  S
N338        C339   1.345       .  A
N338       Cu344   2.072       .  S
C339        C340   1.380       .  A
C339        H342   1.082       .  S
C340        C341   1.378       .  A
C340       C3940   1.464       .  S
C341        H343   1.082       .  S
Cu344       N347   2.072       .  S
Cu345       N355   2.065       .  S
Cu346       N348   2.063       .  S
Cu346       N354   2.063       .  S
N347        N348   1.320       .  A
N347        C351   1.345   1_554  A
N348        C349   1.341   1_554  A
C349        C350   1.385       .  A
C349        H352   1.082       .  S
C350        C351   1.388       .  A
C350       C3923   1.483       .  S
C351        H353   1.080       .  S
N354        N355   1.321       .  A
N354        C358   1.344       .  A
N355        C356   1.344       .  A
C356        C357   1.380       .  A
C356        H359   1.082       .  S
C357        C358   1.379       .  A
C357       C3930   1.465   1_565  S
C358        H360   1.082       .  S
N361        N362   1.322       .  A
N361        C365   1.343       .  A
N361       Cu369   2.069       .  S
N362        C363   1.344       .  A
N362       Cu368   2.069       .  S
C363        C364   1.385       .  A
C363        H366   1.081       .  S
C364        C365   1.384       .  A
C364       C3910   1.478       .  S
C365        H367   1.082       .  S
Cu368       N371   2.069       .  S
Cu369       N379   2.069       .  S
Cu370       N372   2.061       .  S
Cu370       N378   2.061       .  S
N371        N372   1.322       .  A
N371        C375   1.344       .  A
N372        C373   1.343       .  A
C373        C374   1.378       .  A
C373        H376   1.082       .  S
C374        C375   1.381       .  A
C374       C3900   1.465   1_556  S
C375        H377   1.082       .  S
N378        N379   1.322       .  A
N378        C382   1.342   1_455  A
N379        C380   1.345   1_455  A
C380        C381   1.383       .  A
C380        H383   1.082       .  S
C381        C382   1.379       .  A
C381       C3893   1.469       .  S
C382        H384   1.082       .  S
N385        N386   1.319       .  A
N385        C389   1.347       .  A
N385       Cu393   2.080       .  S
N386        C387   1.336       .  A
N386       Cu392   2.041       .  S
C387        C388   1.381       .  A
C387        H390   1.082       .  S
C388        C389   1.393       .  A
C388       C3873   1.486       .  S
C389        H391   1.079       .  S
Cu392       N395   2.040       .  S
Cu393       N403   2.081       .  S
Cu394       N396   2.067       .  S
Cu394       N402   2.069       .  S
N395        N396   1.318       .  A
N395        C399   1.339       .  A
N396        C397   1.346       .  A
C397        C398   1.388       .  A
C397        H400   1.081       .  S
C398        C399   1.379       .  A
C398       C3880   1.474       .  S
C399        H401   1.082       .  S
N402        N403   1.323       .  A
N402        C406   1.340       .  A
N403        C404   1.347       .  A
C404        C405   1.389       .  A
C404        H407   1.080       .  S
C405        C406   1.384       .  A
C405       C4223   1.486       .  S
C406        H408   1.081       .  S
N409        N410   1.322       .  A
N409        C413   1.355       .  A
N409       Cu417   2.117       .  S
N410        C411   1.338       .  A
N410       Cu416   2.043       .  S
C411        C412   1.376       .  A
C411        H414   1.082       .  S
C412        C413   1.397       .  A
C412       C3860   1.487       .  S
C413        H415   1.081       .  S
Cu416       N419   2.044       .  S
Cu417       N427   2.119       .  S
Cu418       N420   2.072       .  S
Cu418       N426   2.074       .  S
N419        N420   1.319       .  A
N419        C423   1.340       .  A
N420        C421   1.346       .  A
C421        C422   1.387       .  A
C421        H424   1.082       .  S
C422        C423   1.379       .  A
C422       C3883   1.472       .  S
C423        H425   1.082       .  S
N426        N427   1.325       .  A
N426        C430   1.342       .  A
N427        C428   1.355       .  A
C428        C429   1.394       .  A
C428        H431   1.082       .  S
C429        C430   1.382       .  A
C429       C3850   1.492       .  S
C430        H432   1.081       .  S
N433        N434   1.320       .  A
N433        C437   1.349       .  A
N433       Cu441   2.077       .  S
N434        C435   1.337       .  A
N434       Cu440   2.043       .  S
C435        C436   1.376       .  A
C435        H438   1.082       .  S
C436        C437   1.388       .  A
C436       C3830   1.472       .  S
C437        H439   1.082       .  S
Cu440       N443   2.044       .  S
Cu441       N451   2.080       .  S
Cu442       N444   2.075       .  S
Cu442       N450   2.077       .  S
N443        N444   1.320       .  A
N443        C447   1.339       .  A
N444        C445   1.347       .  A
C445        C446   1.387       .  A
C445        H448   1.082       .  S
C446        C447   1.378       .  A
C446       C3840   1.472       .  S
C447        H449   1.082       .  S
N450        N451   1.324       .  A
N450        C454   1.343       .  A
N451        C452   1.346       .  A
C452        C453   1.387       .  A
C452        H455   1.082       .  S
C453        C454   1.385       .  A
C453       C4013   1.484       .  S
C454        H456   1.080       .  S
N457        N458   1.321       .  A
N457        C461   1.354       .  A
N457       Cu465   2.113       .  S
N458        C459   1.339       .  A
N458       Cu464   2.047       .  S
C459        C460   1.378       .  A
C459        H462   1.082       .  S
C460        C461   1.396       .  A
C460       C3863   1.489       .  S
C461        H463   1.081       .  S
Cu464       N467   2.046       .  S
Cu465       N475   2.115       .  S
Cu466       N468   2.079       .  S
Cu466       N474   2.081       .  S
N467        N468   1.319       .  A
N467        C471   1.341       .  A
N468        C469   1.346       .  A
C469        C470   1.389       .  A
C469        H472   1.082       .  S
C470        C471   1.381       .  A
C470       C3843   1.477       .  S
C471        H473   1.082       .  S
N474        N475   1.325       .  A
N474        C478   1.346       .  A
N475        C476   1.352       .  A
C476        C477   1.392       .  A
C476        H479   1.082       .  S
C477        C478   1.383       .  A
C477       C3820   1.490       .  S
C478        H480   1.082       .  S
N481        N482   1.321       .  A
N481        C485   1.356       .  A
N481       Cu489   2.123       .  S
N482        C483   1.339       .  A
N482       Cu488   2.040       .  S
C483        C484   1.375       .  A
C483        H486   1.082       .  S
C484        C485   1.397       .  A
C484       C3800   1.483       .  S
C485        H487   1.082       .  S
Cu488       N491   2.044       .  S
Cu489       N499   2.126       .  S
Cu490       N492   2.070       .  S
Cu490       N498   2.074       .  S
N491        N492   1.318       .  A
N491        C495   1.337   1_556  A
N492        C493   1.349   1_556  A
C493        C494   1.387       .  A
C493        H496   1.082       .  S
C494        C495   1.377       .  A
C494       C3810   1.469       .  S
C495        H497   1.082       .  S
N498        N499   1.327       .  A
N498        C502   1.344       .  A
N499        C500   1.354       .  A
C500        C501   1.392       .  A
C500        H503   1.081       .  S
C501        C502   1.380       .  A
C501       C3790   1.488       .  S
C502        H504   1.082       .  S
N505        N506   1.320       .  A
N505        C509   1.347       .  A
N505       Cu513   2.075       .  S
N506        C507   1.338       .  A
N506       Cu512   2.044       .  S
C507        C508   1.375       .  A
C507        H510   1.082       .  S
C508        C509   1.387       .  A
C508       C3870   1.467       .  S
C509        H511   1.082       .  S
Cu512       N515   2.047       .  S
Cu513       N523   2.078       .  S
Cu514       N516   2.068       .  S
Cu514       N522   2.071       .  S
N515        N516   1.320       .  A
N515        C519   1.337       .  A
N516        C517   1.348       .  A
C517        C518   1.385       .  A
C517        H520   1.082       .  S
C518        C519   1.377       .  A
C518       C3813   1.467       .  S
C519        H521   1.082       .  S
N522        N523   1.324       .  A
N522        C526   1.342       .  A
N523        C524   1.345       .  A
C524        C525   1.384       .  A
C524        H527   1.081       .  S
C525        C526   1.382       .  A
C525       C3943   1.477       .  S
C526        H528   1.082       .  S
N529        N530   1.321       .  A
N529        C533   1.354       .  A
N529       Cu537   2.117       .  S
N530        C531   1.341       .  A
N530       Cu536   2.050       .  S
C531        C532   1.380       .  A
C531        H534   1.081       .  S
C532        C533   1.398       .  A
C532       C3803   1.493       .  S
C533        H535   1.082       .  S
Cu536       N539   2.048       .  S
Cu537       N547   2.118       .  S
Cu538       N540   2.074       .  S
Cu538       N546   2.076       .  S
N539        N540   1.320       .  A
N539        C543   1.341       .  A
N540        C541   1.345       .  A
C541        C542   1.386       .  A
C541        H544   1.082       .  S
C542        C543   1.379       .  A
C542       C3780   1.471       .  S
C543        H545   1.082       .  S
N546        N547   1.324       .  A
N546        C550   1.345       .  A
N547        C548   1.353       .  A
C548        C549   1.394       .  A
C548        H551   1.082       .  S
C549        C550   1.383       .  A
C549       C3770   1.492       .  S
C550        H552   1.082       .  S
N553        N554   1.318       .  A
N553        C557   1.347       .  A
N553       Cu561   2.079       .  S
N554        C555   1.337       .  A
N554       Cu560   2.039       .  S
C555        C556   1.381       .  A
C555        H558   1.082       .  S
C556        C557   1.393       .  A
C556       C3760   1.486       .  S
C557        H559   1.079       .  S
Cu560       N563   2.038       .  S
Cu561       N571   2.082       .  S
Cu562       N564   2.073       .  S
Cu562       N570   2.076       .  S
N563        N564   1.319       .  A
N563        C567   1.338       .  A
N564        C565   1.348       .  A
C565        C566   1.386       .  A
C565        H568   1.082       .  S
C566        C567   1.375       .  A
C566       C3783   1.466       .  S
C567        H569   1.082       .  S
N570        N571   1.326       .  A
N570        C574   1.343       .  A
N571        C572   1.347       .  A
C572        C573   1.381       .  A
C572        H575   1.082       .  S
C573        C574   1.378       .  A
C573       C4153   1.467       .  S
C574        H576   1.082       .  S
N577        N578   1.323       .  A
N577        C581   1.358       .  A
N577       Cu585   2.125       .  S
N578        C579   1.338       .  A
N578       Cu584   2.045       .  S
C579        C580   1.375       .  A
C579        H582   1.082       .  S
C580        C581   1.397       .  A
C580       C3740   1.487       .  S
C581        H583   1.081       .  S
Cu584       N587   2.045       .  S
Cu585       N595   2.126       .  S
Cu586       N588   2.064       .  S
Cu586       N594   2.065       .  S
N587        N588   1.318       .  A
N587        C591   1.342       .  A
N588        C589   1.343   1_565  A
C589        C590   1.386   1_545  A
C589        H592   1.081       .  S
C590        C591   1.380       .  A
C590       C3750   1.473   1_565  S
C591        H593   1.082       .  S
N594        N595   1.323       .  A
N594        C598   1.340       .  A
N595        C596   1.357       .  A
C596        C597   1.400       .  A
C596        H599   1.081       .  S
C597        C598   1.384       .  A
C597       C3730   1.500       .  S
C598        H600   1.082   1_565  S
N601        N602   1.319       .  A
N601        C605   1.351       .  A
N601       Cu609   2.079       .  S
N602        C603   1.333       .  A
N602       Cu608   2.035       .  S
C603        C604   1.376       .  A
C603        H606   1.081       .  S
C604        C605   1.391       .  A
C604       C3720   1.475       .  S
C605        H607   1.082       .  S
Cu608       N611   2.033       .  S
Cu609       N619   2.084       .  S
Cu610       N612   2.068       .  S
Cu610       N618   2.072       .  S
N611        N612   1.317       .  A
N611        C615   1.336       .  A
N612        C613   1.348       .  A
C613        C614   1.388       .  A
C613        H616   1.082       .  S
C614        C615   1.377       .  A
C614       C3753   1.468       .  S
C615        H617   1.082       .  S
N618        N619   1.326       .  A
N618        C622   1.341       .  A
N619        C620   1.346       .  A
C620        C621   1.382       .  A
C620        H623   1.082       .  S
C621        C622   1.378       .  A
C621       C4123   1.471       .  S
C622        H624   1.082       .  S
N625        N626   1.320       .  A
N625        C629   1.359       .  A
N625       Cu633   2.126       .  S
N626        C627   1.336       .  A
N626       Cu632   2.038       .  S
C627        C628   1.377       .  A
C627        H630   1.081       .  S
C628        C629   1.401       .  A
C628       C3743   1.493       .  S
C629        H631   1.082       .  S
Cu632       N635   2.037       .  S
Cu633       N643   2.130       .  S
Cu634       N636   2.072       .  S
Cu634       N642   2.075       .  S
N635        N636   1.317       .  A
N635        C639   1.338       .  A
N636        C637   1.347       .  A
C637        C638   1.389       .  A
C637        H640   1.082       .  S
C638        C639   1.379       .  A
C638       C3710   1.472       .  S
C639        H641   1.082       .  S
N642        N643   1.327       .  A
N642        C646   1.343       .  A
N643        C644   1.356       .  A
C644        C645   1.394       .  A
C644        H647   1.082       .  S
C645        C646   1.379       .  A
C645       C3703   1.490       .  S
C646        H648   1.082       .  S
N649        N650   1.322       .  A
N649        C653   1.350       .  A
N649       Cu657   2.080       .  S
N650        C651   1.337       .  A
N650       Cu656   2.045       .  S
C651        C652   1.375       .  A
C651        H654   1.082       .  S
C652        C653   1.387       .  A
C652       C3833   1.471       .  S
C653        H655   1.082       .  S
Cu656       N659   2.045       .  S
Cu657       N667   2.082       .  S
Cu658       N660   2.068       .  S
Cu658       N666   2.070       .  S
N659        N660   1.318       .  A
N659        C663   1.341       .  A
N660        C661   1.345       .  A
C661        C662   1.387       .  A
C661        H664   1.081       .  S
C662        C663   1.380       .  A
C662       C3713   1.474       .  S
C663        H665   1.082       .  S
N666        N667   1.323       .  A
N666        C670   1.342       .  A
N667        C668   1.346       .  A
C668        C669   1.387       .  A
C668        H671   1.082       .  S
C669        C670   1.383       .  A
C669       C4213   1.481       .  S
C670        H672   1.081       .  S
N673        N674   1.320       .  A
N673        C677   1.352       .  A
N673       Cu681   2.082       .  S
N674        C675   1.333       .  A
N674       Cu680   2.039       .  S
C675        C676   1.377       .  A
C675        H678   1.082       .  S
C676        C677   1.392       .  A
C676       C3723   1.478       .  S
C677        H679   1.081       .  S
Cu680       N683   2.038       .  S
Cu681       N691   2.085       .  S
Cu682       N684   2.065       .  S
Cu682       N690   2.069       .  S
N683        N684   1.316       .  A
N683        C687   1.339       .  A
N684        C685   1.345       .  A
C685        C686   1.389       .  A
C685        H688   1.082       .  S
C686        C687   1.380       .  A
C686       C3690   1.474       .  S
C687        H689   1.082       .  S
N690        N691   1.323       .  A
N690        C694   1.339       .  A
N691        C692   1.347       .  A
C692        C693   1.390       .  A
C692        H695   1.080       .  S
C693        C694   1.384       .  A
C693       C4073   1.487       .  S
C694        H696   1.081       .  S
N697        N698   1.322       .  A
N697        C701   1.355       .  A
N697       Cu705   2.120       .  S
N698        C699   1.341       .  A
N698       Cu704   2.042       .  S
C699        C700   1.374       .  A
C699        H702   1.082       .  S
C700        C701   1.394       .  A
C700       C3680   1.480       .  S
C701        H703   1.082       .  S
Cu704       N707   2.042       .  S
Cu705       N715   2.122       .  S
Cu706       N708   2.076       .  S
Cu706       N714   2.079       .  S
N707        N708   1.320       .  A
N707        C711   1.339       .  A
N708        C709   1.348       .  A
C709        C710   1.386       .  A
C709        H712   1.082       .  S
C710        C711   1.377       .  A
C710       C3693   1.470       .  S
C711        H713   1.082       .  S
N714        N715   1.325       .  A
N714        C718   1.345       .  A
N715        C716   1.354       .  A
C716        C717   1.394       .  A
C716        H719   1.082       .  S
C717        C718   1.383       .  A
C717       C3670   1.492       .  S
C718        H720   1.082       .  S
N721        N722   1.320       .  A
N721        C725   1.357       .  A
N721       Cu729   2.122       .  S
N722        C723   1.337       .  A
N722       Cu728   2.035       .  S
C723        C724   1.374       .  A
C723        H726   1.082       .  S
C724        C725   1.398       .  A
C724       C3683   1.485       .  S
C725        H727   1.082       .  S
Cu728       N731   2.038       .  S
Cu729       N739   2.125       .  S
Cu730       N732   2.080       .  S
Cu730       N738   2.086       .  S
N731        N732   1.318       .  A
N731        C735   1.337       .  A
N732        C733   1.350       .  A
C733        C734   1.391       .  A
C733        H736   1.082       .  S
C734        C735   1.378       .  A
C734       C3660   1.476       .  S
C735        H737   1.082       .  S
N738        N739   1.327       .  A
N738        C742   1.346       .  A
N739        C740   1.353       .  A
C740        C741   1.393       .  A
C740        H743   1.081       .  S
C741        C742   1.382       .  A
C741       C3650   1.493       .  S
C742        H744   1.082       .  S
N745        N746   1.320       .  A
N745        C749   1.350       .  A
N745       Cu753   2.071       .  S
N746        C747   1.336       .  A
N746       Cu752   2.049       .  S
C747        C748   1.377       .  A
C747        H750   1.082       .  S
C748        C749   1.387       .  A
C748       C3640   1.471       .  S
C749        H751   1.082       .  S
Cu752       N755   2.047       .  S
Cu753       N763   2.075       .  S
Cu754       N756   2.078       .  S
Cu754       N762   2.079       .  S
N755        N756   1.319       .  A
N755        C759   1.339       .  A
N756        C757   1.347       .  A
C757        C758   1.388       .  A
C757        H760   1.082       .  S
C758        C759   1.379       .  A
C758       C3663   1.468       .  S
C759        H761   1.082       .  S
N762        N763   1.323       .  A
N762        C766   1.342       .  A
N763        C764   1.345       .  A
C764        C765   1.387       .  A
C764        H767   1.080       .  S
C765        C766   1.387       .  A
C765       C3963   1.487       .  S
C766        H768   1.081       .  S
N769        N770   1.321       .  A
N769        C773   1.358       .  A
N769       Cu777   2.123       .  S
N770        C771   1.336       .  A
N770       Cu776   2.040       .  S
C771        C772   1.378       .  A
C771        H774   1.082       .  S
C772        C773   1.400       .  A
C772       C3620   1.493       .  S
C773        H775   1.081       .  S
Cu776       N779   2.041       .  S
Cu777       N787   2.126       .  S
Cu778       N780   2.073       .  S
Cu778       N786   2.076       .  S
N779        N780   1.317       .  A
N779        C783   1.340       .  A
N780        C781   1.346   1_655  A
C781        C782   1.390       .  A
C781        H784   1.080       .  S
C782        C783   1.381   1_455  A
C782       C3630   1.480       .  S
C783        H785   1.082       .  S
N786        N787   1.326       .  A
N786        C790   1.344       .  A
N787        C788   1.354       .  A
C788        C789   1.393       .  A
C788        H791   1.082       .  S
C789        C790   1.381       .  A
C789       C3610   1.490       .  S
C790        H792   1.082   1_655  S
N793        N794   1.320       .  A
N793        C797   1.348       .  A
N793       Cu801   2.072       .  S
N794        C795   1.337       .  A
N794       Cu800   2.046       .  S
C795        C796   1.377       .  A
C795        H798   1.082       .  S
C796        C797   1.386       .  A
C796       C3600   1.471       .  S
C797        H799   1.082       .  S
Cu800       N803   2.046       .  S
Cu801       N811   2.074       .  S
Cu802       N804   2.073       .  S
Cu802       N810   2.074       .  S
N803        N804   1.319       .  A
N803        C807   1.339       .  A
N804        C805   1.347       .  A
C805        C806   1.388       .  A
C805        H808   1.082       .  S
C806        C807   1.380       .  A
C806       C3633   1.475       .  S
C807        H809   1.082       .  S
N810        N811   1.325       .  A
N810        C814   1.343       .  A
N811        C812   1.346       .  A
C812        C813   1.380       .  A
C812        H815   1.082       .  S
C813        C814   1.378       .  A
C813       C3913   1.465       .  S
C814        H816   1.082       .  S
N817        N818   1.318       .  A
N817        C821   1.350       .  A
N817       Cu825   2.075       .  S
N818        C819   1.334       .  A
N818       Cu824   2.039       .  S
C819        C820   1.381       .  A
C819        H822   1.082       .  S
C820        C821   1.394       .  A
C820       C3643   1.485       .  S
C821        H823   1.080       .  S
Cu824       N827   2.038       .  S
Cu825       N835   2.080       .  S
Cu826       N828   2.074       .  S
Cu826       N834   2.076       .  S
N827        N828   1.319       .  A
N827        C831   1.339       .  A
N828        C829   1.347       .  A
C829        C830   1.387       .  A
C829        H832   1.082       .  S
C830        C831   1.377       .  A
C830       C3590   1.470       .  S
C831        H833   1.082       .  S
N834        N835   1.326       .  A
N834        C838   1.343       .  A
N835        C836   1.346       .  A
C836        C837   1.381       .  A
C836        H839   1.082       .  S
C837        C838   1.379       .  A
C837       C4180   1.468       .  S
C838        H840   1.082       .  S
N841        N842   1.321       .  A
N841        C845   1.358       .  A
N841       Cu849   2.121       .  S
N842        C843   1.337       .  A
N842       Cu848   2.041       .  S
C843        C844   1.375       .  A
C843        H846   1.082       .  S
C844        C845   1.397       .  A
C844       C3623   1.486       .  S
C845        H847   1.081       .  S
Cu848       N851   2.041       .  S
Cu849       N859   2.124       .  S
Cu850       N852   2.074       .  S
Cu850       N858   2.077       .  S
N851        N852   1.317       .  A
N851        C855   1.340       .  A
N852        C853   1.346       .  A
C853        C854   1.391       .  A
C853        H856   1.082       .  S
C854        C855   1.381       .  A
C854       C3593   1.478       .  S
C855        H857   1.081       .  S
N858        N859   1.326       .  A
N858        C862   1.343       .  A
N859        C860   1.355       .  A
C860        C861   1.394       .  A
C860        H863   1.082       .  S
C861        C862   1.382       .  A
C861       C3580   1.492       .  S
C862        H864   1.082       .  S
N865        N866   1.320       .  A
N865        C869   1.348       .  A
N865       Cu873   2.078       .  S
N866        C867   1.338       .  A
N866       Cu872   2.043       .  S
C867        C868   1.375       .  A
C867        H870   1.082       .  S
C868        C869   1.387       .  A
C868       C3763   1.467       .  S
C869        H871   1.082       .  S
Cu872       N875   2.047       .  S
Cu873       N883   2.080       .  S
Cu874       N876   2.066       .  S
Cu874       N882   2.069       .  S
N875        N876   1.319       .  A
N875        C879   1.337       .  A
N876        C877   1.348       .  A
C877        C878   1.385       .  A
C877        H880   1.081       .  S
C878        C879   1.377       .  A
C878       C3570   1.466       .  S
C879        H881   1.082       .  S
N882        N883   1.326       .  A
N882        C886   1.342       .  A
N883        C884   1.346       .  A
C884        C885   1.380       .  A
C884        H887   1.082       .  S
C885        C886   1.376       .  A
C885       C3983   1.463       .  S
C886        H888   1.082       .  S
N889        N890   1.321       .  A
N889        C893   1.358       .  A
N889       Cu897   2.127       .  S
N890        C891   1.336       .  A
N890       Cu896   2.033       .  S
C891        C892   1.375       .  A
C891        H894   1.082       .  S
C892        C893   1.400       .  A
C892       C3560   1.488       .  S
C893        H895   1.082       .  S
Cu896       N899   2.037       .  S
Cu897       N907   2.130       .  S
Cu898       N900   2.069       .  S
Cu898       N906   2.074       .  S
N899        N900   1.317       .  A
N899        C903   1.336       .  A
N900        C901   1.349       .  A
C901        C902   1.388       .  A
C901        H904   1.082       .  S
C902        C903   1.377       .  A
C902       C3573   1.468       .  S
C903        H905   1.082       .  S
N906        N907   1.326       .  A
N906        C910   1.341       .  A
N907        C908   1.356       .  A
C908        C909   1.398       .  A
C908        H911   1.080       .  S
C909        C910   1.383       .  A
C909       C3550   1.499       .  S
C910        H912   1.082       .  S
N913        N914   1.320       .  A
N913        C917   1.348       .  A
N913       Cu921   2.069       .  S
N914        C915   1.337       .  A
N914       Cu920   2.047       .  S
C915        C916   1.377       .  A
C915        H918   1.082       .  S
C916        C917   1.386       .  A
C916       C3603   1.469       .  S
C917        H919   1.082       .  S
Cu920       N923   2.046       .  S
Cu921       N931   2.072       .  S
Cu922       N924   2.074       .  S
Cu922       N930   2.074       .  S
N923        N924   1.319       .  A
N923        C927   1.340       .  A
N924        C925   1.346       .  A
C925        C926   1.388       .  A
C925        H928   1.082       .  S
C926        C927   1.380       .  A
C926       C3540   1.474       .  S
C927        H929   1.082       .  S
N930        N931   1.324       .  A
N930        C934   1.343       .  A
N931        C932   1.345       .  A
C932        C933   1.380       .  A
C932        H935   1.082       .  S
C933        C934   1.380       .  A
C933       C4043   1.468       .  S
C934        H936   1.082       .  S
N937        N938   1.322       .  A
N937        C941   1.354       .  A
N937       Cu945   2.120       .  S
N938        C939   1.341       .  A
N938       Cu944   2.041       .  S
C939        C940   1.373       .  A
C939        H942   1.082       .  S
C940        C941   1.394       .  A
C940       C3563   1.479       .  S
C941        H943   1.082       .  S
Cu944       N947   2.040       .  S
Cu945       N955   2.122       .  S
Cu946       N948   2.078       .  S
Cu946       N954   2.081       .  S
N947        N948   1.320       .  A
N947        C951   1.339       .  A
N948        C949   1.348       .  A
C949        C950   1.386       .  A
C949        H952   1.082       .  S
C950        C951   1.377       .  A
C950       C3543   1.470       .  S
C951        H953   1.082       .  S
N954        N955   1.325       .  A
N954        C958   1.345       .  A
N955        C956   1.354       .  A
C956        C957   1.394       .  A
C956        H959   1.082       .  S
C957        C958   1.383       .  A
C957       C3530   1.493       .  S
C958        H960   1.082       .  S
N961        N962   1.318       .  A
N961        C965   1.349       .  A
N961       Cu969   2.082       .  S
N962        C963   1.336       .  A
N962       Cu968   2.033       .  S
C963        C964   1.376       .  A
C963        H966   1.082       .  S
C964        C965   1.391       .  A
C964       C3510   1.473       .  S
C965        H967   1.082       .  S
Cu968       N971   2.034       .  S
Cu969       N979   2.085       .  S
Cu970       N972   2.076       .  S
Cu970       N978   2.079       .  S
N971        N972   1.319       .  A
N971        C975   1.335       .  A
N972        C973   1.351       .  A
C973        C974   1.387       .  A
C973        H976   1.081       .  S
C974        C975   1.374       .  A
C974       C3520   1.465       .  S
C975        H977   1.082       .  S
N978        N979   1.325       .  A
N978        C982   1.342       .  A
N979        C980   1.346       .  A
C980        C981   1.386       .  A
C980        H983   1.081       .  S
C981        C982   1.383       .  A
C981       C4163   1.482       .  S
C982        H984   1.082       .  S
N985        N986   1.321       .  A
N985        C989   1.356       .  A
N985       Cu993   2.125       .  S
N986        C987   1.340       .  A
N986       Cu992   2.042       .  S
C987        C988   1.376       .  A
C987        H990   1.082       .  S
C988        C989   1.397       .  A
C988       C3500   1.485       .  S
C989        H991   1.082       .  S
Cu992       N995   2.046       .  S
Cu993      N1003   2.128       .  S
Cu994       N996   2.072       .  S
Cu994      N1002   2.077       .  S
N995        N996   1.319       .  A
N995        C999   1.338       .  A
N996        C997   1.349       .  A
C997        C998   1.387       .  A
C997       H1000   1.082       .  S
C998        C999   1.378       .  A
C998       C3523   1.471       .  S
C999       H1001   1.082       .  S
N1002      N1003   1.326       .  A
N1002      C1006   1.344       .  A
N1003      C1004   1.355       .  A
C1004      C1005   1.393       .  A
C1004      H1007   1.081       .  S
C1005      C1006   1.381       .  A
C1005      C3490   1.490       .  S
C1006      H1008   1.082       .  S
N1009      N1010   1.317       .  A
N1009      C1013   1.350       .  A
N1009     Cu1017   2.076       .  S
N1010      C1011   1.333       .  A
N1010     Cu1016   2.037       .  S
C1011      C1012   1.381       .  A
C1011      H1014   1.081       .  S
C1012      C1013   1.395       .  A
C1012      C3470   1.486       .  S
C1013      H1015   1.080       .  S
Cu1016     N1019   2.036       .  S
Cu1017     N1027   2.080       .  S
Cu1018     N1020   2.073       .  S
Cu1018     N1026   2.076       .  S
N1019      N1020   1.317       .  A
N1019      C1023   1.338       .  A
N1020      C1021   1.346       .  A
C1021      C1022   1.390       .  A
C1021      H1024   1.081       .  S
C1022      C1023   1.379       .  A
C1022      C3480   1.477       .  S
C1023      H1025   1.082       .  S
N1026      N1027   1.326       .  A
N1026      C1030   1.342       .  A
N1027      C1028   1.346       .  A
C1028      C1029   1.381       .  A
C1028      H1031   1.082       .  S
C1029      C1030   1.379       .  A
C1029      C3920   1.469       .  S
C1030      H1032   1.082       .  S
N1033      N1034   1.321       .  A
N1033      C1037   1.355       .  A
N1033     Cu1041   2.126       .  S
N1034      C1035   1.340       .  A
N1034     Cu1040   2.044       .  S
C1035      C1036   1.379       .  A
C1035      H1038   1.081       .  S
C1036      C1037   1.400       .  A
C1036      C3503   1.494       .  S
C1037      H1039   1.081       .  S
Cu1040     N1043   2.044   1_545  S
Cu1041     N1051   2.127       .  S
Cu1042     N1044   2.073       .  S
Cu1042     N1050   2.076       .  S
N1043      N1044   1.319       .  A
N1043      C1047   1.340       .  A
N1044      C1045   1.347       .  A
C1045      C1046   1.387       .  A
C1045      H1048   1.082       .  S
C1046      C1047   1.379       .  A
C1046      C3483   1.472       .  S
C1047      H1049   1.082   1_565  S
N1050      N1051   1.325   1_565  A
N1050      C1054   1.344       .  A
N1051      C1052   1.355       .  A
C1052      C1053   1.395   1_545  A
C1052      H1055   1.082       .  S
C1053      C1054   1.382       .  A
C1053      C3460   1.493       .  S
C1054      H1056   1.082       .  S
N1057      N1058   1.321       .  A
N1057      C1061   1.357       .  A
N1057     Cu1065   2.115       .  S
N1058      C1059   1.338       .  A
N1058     Cu1064   2.047       .  S
C1059      C1060   1.377       .  A
C1059      H1062   1.082       .  S
C1060      C1061   1.396       .  A
C1060      C3440   1.487       .  S
C1061      H1063   1.082       .  S
Cu1064     N1067   2.045       .  S
Cu1065     N1075   2.119       .  S
Cu1066     N1068   2.081       .  S
Cu1066     N1074   2.084       .  S
N1067      N1068   1.319       .  A
N1067      C1071   1.339       .  A
N1068      C1069   1.349       .  A
C1069      C1070   1.389       .  A
C1069      H1072   1.082       .  S
C1070      C1071   1.379       .  A
C1070      C3450   1.472       .  S
C1071      H1073   1.082       .  S
N1074      N1075   1.326       .  A
N1074      C1078   1.345       .  A
N1075      C1076   1.353       .  A
C1076      C1077   1.391       .  A
C1076      H1079   1.082       .  S
C1077      C1078   1.382       .  A
C1077      C3823   1.489       .  S
C1078      H1080   1.082       .  S
N1081      N1082   1.320       .  A
N1081      C1085   1.350       .  A
N1081     Cu1089   2.084       .  S
N1082      C1083   1.336       .  A
N1082     Cu1088   2.033       .  S
C1083      C1084   1.373       .  A
C1083      H1086   1.082       .  S
C1084      C1085   1.389       .  A
C1084      C3430   1.468       .  S
C1085      H1087   1.082       .  S
Cu1088     N1091   2.032       .  S
Cu1089     N1099   2.087       .  S
Cu1090     N1092   2.077       .  S
Cu1090     N1098   2.080       .  S
N1091      N1092   1.319       .  A
N1091      C1095   1.337       .  A
N1092      C1093   1.349       .  A
C1093      C1094   1.387       .  A
C1093      H1096   1.081       .  S
C1094      C1095   1.375       .  A
C1094      C3453   1.466       .  S
C1095      H1097   1.082       .  S
N1098      N1099   1.327       .  A
N1098      C1102   1.344       .  A
N1099      C1100   1.347       .  A
C1100      C1101   1.381       .  A
C1100      H1103   1.082       .  S
C1101      C1102   1.378       .  A
C1101      C4270   1.469       .  S
C1102      H1104   1.082       .  S
N1105      N1106   1.321       .  A
N1105      C1109   1.349       .  A
N1105     Cu1113   2.074       .  S
N1106      C1107   1.336       .  A
N1106     Cu1112   2.044       .  S
C1107      C1108   1.376       .  A
C1107      H1110   1.082       .  S
C1108      C1109   1.387       .  A
C1108      C3410   1.470       .  S
C1109      H1111   1.082       .  S
Cu1112     N1115   2.044       .  S
Cu1113     N1123   2.077       .  S
Cu1114     N1116   2.072       .  S
Cu1114     N1122   2.074       .  S
N1115      N1116   1.319       .  A
N1115      C1119   1.339       .  A
N1116      C1117   1.347       .  A
C1117      C1118   1.388       .  A
C1117      H1120   1.082       .  S
C1118      C1119   1.380       .  A
C1118      C3420   1.474       .  S
C1119      H1121   1.082       .  S
N1122      N1123   1.325       .  A
N1122      C1126   1.342       .  A
N1123      C1124   1.346       .  A
C1124      C1125   1.383       .  A
C1124      H1127   1.082       .  S
C1125      C1126   1.381       .  A
C1125      C4203   1.473       .  S
C1126      H1128   1.082       .  S
N1129      N1130   1.320       .  A
N1129      C1133   1.357       .  A
N1129     Cu1137   2.121       .  S
N1130      C1131   1.337       .  A
N1130     Cu1136   2.042       .  S
C1131      C1132   1.379       .  A
C1131      H1134   1.082       .  S
C1132      C1133   1.401       .  A
C1132      C3443   1.495       .  S
C1133      H1135   1.081       .  S
Cu1136     N1139   2.042       .  S
Cu1137     N1147   2.124       .  S
Cu1138     N1140   2.077       .  S
Cu1138     N1146   2.080       .  S
N1139      N1140   1.318       .  A
N1139      C1143   1.340       .  A
N1140      C1141   1.347       .  A
C1141      C1142   1.390       .  A
C1141      H1144   1.081       .  S
C1142      C1143   1.380       .  A
C1142      C3423   1.478       .  S
C1143      H1145   1.082       .  S
N1146      N1147   1.326       .  A
N1146      C1150   1.345       .  A
N1147      C1148   1.354       .  A
C1148      C1149   1.394       .  A
C1148      H1151   1.081       .  S
C1149      C1150   1.382       .  A
C1149      C3400   1.492       .  S
C1150      H1152   1.082       .  S
N1153      N1154   1.317       .  A
N1153      C1157   1.355       .  A
N1153     Cu1161   2.094       .  S
N1154      C1155   1.329       .  A
N1154     Cu1160   2.011       .  S
C1155      C1156   1.372       .  A
C1155      H1158   1.082       .  S
C1156      C1157   1.396       .  A
C1156      C3380   1.474       .  S
C1157      H1159   1.082       .  S
Cu1160     N1163   2.013       .  S
Cu1161     N1171   2.101       .  S
Cu1162     N1164   2.077       .  S
Cu1162     N1170   2.082       .  S
N1163      N1164   1.313       .  A
N1163      C1167   1.333       .  A
N1164      C1165   1.350       .  A
C1165      C1166   1.397       .  A
C1165      H1168   1.080       .  S
C1166      C1167   1.379       .  A
C1166      C3390   1.483       .  S
C1167      H1169   1.082       .  S
N1170      N1171   1.328       .  A
N1170      C1174   1.340       .  A
N1171      C1172   1.348       .  A
C1172      C1173   1.389       .  A
C1172      H1175   1.082       .  S
C1173      C1174   1.382       .  A
C1173      C3973   1.486       .  S
C1174      H1176   1.079       .  S
N1177      N1178   1.321       .  A
N1177      C1181   1.356       .  A
N1177     Cu1185   2.124       .  S
N1178      C1179   1.338       .  A
N1178     Cu1184   2.049       .  S
C1179      C1180   1.381       .  A
C1179      H1182   1.082       .  S
C1180      C1181   1.402       .  A
C1180      C3370   1.500       .  S
C1181      H1183   1.080       .  S
Cu1184     N1187   2.047       .  S
Cu1185     N1195   2.126       .  S
Cu1186     N1188   2.074       .  S
Cu1186     N1194   2.077       .  S
N1187      N1188   1.314       .  A
N1187      C1191   1.337       .  A
N1188      C1189   1.344       .  A
C1189      C1190   1.398       .  A
C1189      H1192   1.085       .  S
C1190      C1191   1.393       .  A
C1190      C3393   1.503       .  S
C1191      H1193   1.082       .  S
N1194      N1195   1.325       .  A
N1194      C1198   1.342       .  A
N1195      C1196   1.356       .  A
C1196      C1197   1.395       .  A
C1196      H1199   1.082       .  S
C1197      C1198   1.382       .  A
C1197      C3360   1.494       .  S
C1198      H1200   1.081       .  S
N1201      N1202   1.321       .  A
N1201      C1205   1.355       .  A
N1201     Cu1209   2.121       .  S
N1202      C1203   1.340       .  A
N1202     Cu1208   2.040       .  S
C1203      C1204   1.376       .  A
C1203      H1206   1.082       .  S
C1204      C1205   1.398       .  A
C1204      C3373   1.488       .  S
C1205      H1207   1.082       .  S
Cu1208     N1211   2.044       .  S
Cu1209     N1219   2.123       .  S
Cu1210     N1212   2.065       .  S
Cu1210     N1218   2.069       .  S
N1211      N1212   1.319       .  A
N1211      C1215   1.337       .  A
N1212      C1213   1.348       .  A
C1213      C1214   1.385       .  A
C1213      H1216   1.082       .  S
C1214      C1215   1.377       .  A
C1214      C3350   1.465       .  S
C1215      H1217   1.082       .  S
N1218      N1219   1.326       .  A
N1218      C1222   1.342       .  A
N1219      C1220   1.354       .  A
C1220      C1221   1.394       .  A
C1220      H1223   1.081       .  S
C1221      C1222   1.380       .  A
C1221      C3340   1.489       .  S
C1222      H1224   1.082       .  S
N1225      N1226   1.319       .  A
N1225      C1229   1.348       .  A
N1225     Cu1233   2.083       .  S
N1226      C1227   1.337       .  A
N1226     Cu1232   2.037       .  S
C1227      C1228   1.377       .  A
C1227      H1230   1.082       .  S
C1228      C1229   1.391       .  A
C1228      C3433   1.474       .  S
C1229      H1231   1.082       .  S
Cu1232     N1235   2.040       .  S
Cu1233     N1243   2.086       .  S
Cu1234     N1236   2.067       .  S
Cu1234     N1242   2.070       .  S
N1235      N1236   1.319       .  A
N1235      C1239   1.336       .  A
N1236      C1237   1.349       .  A
C1237      C1238   1.384       .  A
C1237      H1240   1.081       .  S
C1238      C1239   1.375       .  A
C1238      C3353   1.462       .  S
C1239      H1241   1.082       .  S
N1242      N1243   1.325       .  A
N1242      C1246   1.342       .  A
N1243      C1244   1.346       .  A
C1244      C1245   1.385       .  A
C1244      H1247   1.082       .  S
C1245      C1246   1.381       .  A
C1245      C4243   1.477       .  S
C1246      H1248   1.081       .  S
N1249      N1250   1.320       .  A
N1249      C1253   1.355       .  A
N1249     Cu1257   2.119       .  S
N1250      C1251   1.339       .  A
N1250     Cu1256   2.045       .  S
C1251      C1252   1.380       .  A
C1251      H1254   1.080       .  S
C1252      C1253   1.400       .  A
C1252      C3323   1.496       .  S
C1253      H1255   1.081       .  S
Cu1256     N1259   2.043       .  S
Cu1257     N1267   2.121       .  S
Cu1258     N1260   2.073       .  S
Cu1258     N1266   2.075       .  S
N1259      N1260   1.319       .  A
N1259      C1263   1.339       .  A
N1260      C1261   1.346       .  A
C1261      C1262   1.388       .  A
C1261      H1264   1.082       .  S
C1262      C1263   1.379       .  A
C1262      C3330   1.471       .  S
C1263      H1265   1.082       .  S
N1266      N1267   1.325       .  A
N1266      C1270   1.343       .  A
N1267      C1268   1.355       .  A
C1268      C1269   1.394       .  A
C1268      H1271   1.082       .  S
C1269      C1270   1.382       .  A
C1269      C3310   1.492       .  S
C1270      H1272   1.082       .  S
N1273      N1274   1.319       .  A
N1273      C1277   1.350       .  A
N1273     Cu1281   2.077       .  S
N1274      C1275   1.334       .  A
N1274     Cu1280   2.036       .  S
C1275      C1276   1.375       .  A
C1275      H1278   1.082       .  S
C1276      C1277   1.389       .  A
C1276      C3300   1.472       .  S
C1277      H1279   1.082       .  S
Cu1280     N1283   2.035       .  S
Cu1281     N1291   2.081       .  S
Cu1282     N1284   2.072       .  S
Cu1282     N1290   2.076       .  S
N1283      N1284   1.318       .  A
N1283      C1287   1.338       .  A
N1284      C1285   1.348       .  A
C1285      C1286   1.386       .  A
C1285      H1288   1.082       .  S
C1286      C1287   1.375       .  A
C1286      C3333   1.465       .  S
C1287      H1289   1.082       .  S
N1290      N1291   1.326       .  A
N1290      C1294   1.343       .  A
N1291      C1292   1.346       .  A
C1292      C1293   1.382       .  A
C1292      H1295   1.082       .  S
C1293      C1294   1.380       .  A
C1293      C4053   1.473       .  S
C1294      H1296   1.082       .  S
N1297      N1298   1.320       .  A
N1297      C1301   1.357       .  A
N1297     Cu1305   2.128       .  S
N1298      C1299   1.337       .  A
N1298     Cu1304   2.025       .  S
C1299      C1300   1.371       .  A
C1299      H1302   1.082       .  S
C1300      C1301   1.398       .  A
C1300      C3320   1.479       .  S
C1301      H1303   1.081       .  S
Cu1304     N1307   2.026   1_455  S
Cu1305     N1315   2.132       .  S
Cu1306     N1308   2.081       .  S
Cu1306     N1314   2.087       .  S
N1307      N1308   1.316       .  A
N1307      C1311   1.334       .  A
N1308      C1309   1.351       .  A
C1309      C1310   1.392       .  A
C1309      H1312   1.082       .  S
C1310      C1311   1.375       .  A
C1310      C3290   1.472       .  S
C1311      H1313   1.082       .  S
N1314      N1315   1.329   1_655  A
N1314      C1318   1.345       .  A
N1315      C1316   1.354       .  A
C1316      C1317   1.391   1_455  A
C1316      H1319   1.081       .  S
C1317      C1318   1.380       .  A
C1317      C3613   1.489       .  S
C1318      H1320   1.082       .  S
N1321      N1322   1.320       .  A
N1321      C1325   1.348       .  A
N1321     Cu1329   2.077       .  S
N1322      C1323   1.338       .  A
N1322     Cu1328   2.038       .  S
C1323      C1324   1.375       .  A
C1323      H1326   1.082       .  S
C1324      C1325   1.387       .  A
C1324      C3513   1.469       .  S
C1325      H1327   1.082       .  S
Cu1328     N1331   2.038       .  S
Cu1329     N1339   2.080       .  S
Cu1330     N1332   2.072       .  S
Cu1330     N1338   2.074       .  S
N1331      N1332   1.319       .  A
N1331      C1335   1.336       .  A
N1332      C1333   1.348       .  A
C1333      C1334   1.387       .  A
C1333      H1336   1.081       .  S
C1334      C1335   1.377       .  A
C1334      C3293   1.472       .  S
C1335      H1337   1.082       .  S
N1338      N1339   1.326       .  A
N1338      C1342   1.343       .  A
N1339      C1340   1.346       .  A
C1340      C1341   1.381       .  A
C1340      H1343   1.082       .  S
C1341      C1342   1.378       .  A
C1341      C4353   1.466       .  S
C1342      H1344   1.082       .  S
N1345      N1346   1.320       .  A
N1345      C1349   1.354       .  A
N1345     Cu1353   2.120       .  S
N1346      C1347   1.340       .  A
N1346     Cu1352   2.043       .  S
C1347      C1348   1.380       .  A
C1347      H1350   1.081       .  S
C1348      C1349   1.400       .  A
C1348      C3273   1.494       .  S
C1349      H1351   1.081       .  S
Cu1352     N1355   2.042       .  S
Cu1353     N1363   2.122       .  S
Cu1354     N1356   2.079       .  S
Cu1354     N1362   2.082       .  S
N1355      N1356   1.319       .  A
N1355      C1359   1.339       .  A
N1356      C1357   1.348       .  A
C1357      C1358   1.388       .  A
C1357      H1360   1.082       .  S
C1358      C1359   1.378       .  A
C1358      C3280   1.472       .  S
C1359      H1361   1.082       .  S
N1362      N1363   1.326       .  A
N1362      C1366   1.345       .  A
N1363      C1364   1.353       .  A
C1364      C1365   1.393       .  A
C1364      H1367   1.082       .  S
C1365      C1366   1.383       .  A
C1365      C3673   1.493       .  S
C1366      H1368   1.082       .  S
N1369      N1370   1.321       .  A
N1369      C1373   1.350       .  A
N1369     Cu1377   2.076       .  S
N1370      C1371   1.336       .  A
N1370     Cu1376   2.041       .  S
C1371      C1372   1.375       .  A
C1371      H1374   1.082       .  S
C1372      C1373   1.387       .  A
C1372      C3383   1.468       .  S
C1373      H1375   1.082       .  S
Cu1376     N1379   2.041       .  S
Cu1377     N1387   2.079       .  S
Cu1378     N1380   2.072       .  S
Cu1378     N1386   2.074       .  S
N1379      N1380   1.319       .  A
N1379      C1383   1.340       .  A
N1380      C1381   1.346       .  A
C1381      C1382   1.389       .  A
C1381      H1384   1.081       .  S
C1382      C1383   1.379       .  A
C1382      C3283   1.476       .  S
C1383      H1385   1.082       .  S
N1386      N1387   1.325       .  A
N1386      C1390   1.343       .  A
N1387      C1388   1.346       .  A
C1388      C1389   1.381       .  A
C1388      H1391   1.082       .  S
C1389      C1390   1.378       .  A
C1389      C4333   1.466       .  S
C1390      H1392   1.082       .  S
N1393      N1394   1.318       .  A
N1393      C1397   1.352       .  A
N1393     Cu1401   2.077       .  S
N1394      C1395   1.332       .  A
N1394     Cu1400   2.035       .  S
C1395      C1396   1.379       .  A
C1395      H1398   1.082       .  S
C1396      C1397   1.393       .  A
C1396      C3303   1.480       .  S
C1397      H1399   1.081       .  S
Cu1400     N1403   2.035       .  S
Cu1401     N1411   2.082       .  S
Cu1402     N1404   2.074       .  S
Cu1402     N1410   2.077       .  S
N1403      N1404   1.316       .  A
N1403      C1407   1.336       .  A
N1404      C1405   1.348       .  A
C1405      C1406   1.394       .  A
C1405      H1408   1.080       .  S
C1406      C1407   1.382       .  A
C1406      C3260   1.484       .  S
C1407      H1409   1.082       .  S
N1410      N1411   1.327       .  A
N1410      C1414   1.342       .  A
N1411      C1412   1.346       .  A
C1412      C1413   1.380       .  A
C1412      H1415   1.082       .  S
C1413      C1414   1.376       .  A
C1413      C4113   1.466       .  S
C1414      H1416   1.082       .  S
N1417      N1418   1.321       .  A
N1417      C1421   1.355       .  A
N1417     Cu1425   2.117       .  S
N1418      C1419   1.340       .  A
N1418     Cu1424   2.048       .  S
C1419      C1420   1.378       .  A
C1419      H1422   1.082       .  S
C1420      C1421   1.396       .  A
C1420      C3270   1.486       .  S
C1421      H1423   1.082       .  S
Cu1424     N1427   2.049       .  S
Cu1425     N1435   2.119       .  S
Cu1426     N1428   2.075       .  S
Cu1426     N1434   2.078       .  S
N1427      N1428   1.319       .  A
N1427      C1431   1.338       .  A
N1428      C1429   1.348       .  A
C1429      C1430   1.390       .  A
C1429      H1432   1.081       .  S
C1430      C1431   1.382       .  A
C1430      C3263   1.481       .  S
C1431      H1433   1.082       .  S
N1434      N1435   1.325       .  A
N1434      C1438   1.345       .  A
N1435      C1436   1.353       .  A
C1436      C1437   1.392       .  A
C1436      H1439   1.081       .  S
C1437      C1438   1.383       .  A
C1437      C3250   1.490       .  S
C1438      H1440   1.082       .  S
N1441      N1442   1.321       .  A
N1441      C1445   1.354       .  A
N1441     Cu1449   2.111       .  S
N1442      C1443   1.339       .  A
N1442     Cu1448   2.047       .  S
C1443      C1444   1.379       .  A
C1443      H1446   1.082       .  S
C1444      C1445   1.397       .  A
C1444      C3230   1.490       .  S
C1445      H1447   1.081       .  S
Cu1448     N1451   2.047       .  S
Cu1449     N1459   2.113       .  S
Cu1450     N1452   2.079       .  S
Cu1450     N1458   2.081       .  S
N1451      N1452   1.321       .  A
N1451      C1455   1.340       .  A
N1452      C1453   1.348   1_556  A
C1453      C1454   1.385       .  A
C1453      H1456   1.082       .  S
C1454      C1455   1.376   1_554  A
C1454      C3240   1.466       .  S
C1455      H1457   1.082       .  S
N1458      N1459   1.325       .  A
N1458      C1462   1.346       .  A
N1459      C1460   1.352       .  A
C1460      C1461   1.391       .  A
C1460      H1463   1.082       .  S
C1461      C1462   1.382       .  A
C1461      C3220   1.489       .  S
C1462      H1464   1.082   1_556  S
N1465      N1466   1.320       .  A
N1465      C1469   1.347       .  A
N1465     Cu1473   2.066       .  S
N1466      C1467   1.338       .  A
N1466     Cu1472   2.049       .  S
C1467      C1468   1.378       .  A
C1467      H1470   1.082       .  S
C1468      C1469   1.385       .  A
C1468      C3413   1.470       .  S
C1469      H1471   1.082       .  S
Cu1472     N1475   2.048       .  S
Cu1473     N1483   2.069       .  S
Cu1474     N1476   2.076       .  S
Cu1474     N1482   2.077       .  S
N1475      N1476   1.321       .  A
N1475      C1479   1.340       .  A
N1476      C1477   1.347       .  A
C1477      C1478   1.385       .  A
C1477      H1480   1.082       .  S
C1478      C1479   1.376       .  A
C1478      C3243   1.466       .  S
C1479      H1481   1.082       .  S
N1482      N1483   1.324       .  A
N1482      C1486   1.344       .  A
N1483      C1484   1.344       .  A
C1484      C1485   1.379       .  A
C1484      H1487   1.082       .  S
C1485      C1486   1.380       .  A
C1485      C3993   1.467       .  S
C1486      H1488   1.082       .  S
N1489      N1490   1.321       .  A
N1489      C1493   1.355       .  A
N1489     Cu1497   2.117       .  S
N1490      C1491   1.339       .  A
N1490     Cu1496   2.043       .  S
C1491      C1492   1.377       .  A
C1491      H1494   1.082       .  S
C1492      C1493   1.397       .  A
C1492      C3233   1.487       .  S
C1493      H1495   1.081       .  S
Cu1496     N1499   2.043       .  S
Cu1497     N1507   2.119       .  S
Cu1498     N1500   2.077       .  S
Cu1498     N1506   2.079       .  S
N1499      N1500   1.319       .  A
N1499      C1503   1.340       .  A
N1500      C1501   1.347       .  A
C1501      C1502   1.389       .  A
C1501      H1504   1.081       .  S
C1502      C1503   1.380       .  A
C1502      C3210   1.478       .  S
C1503      H1505   1.082       .  S
N1506      N1507   1.325       .  A
N1506      C1510   1.345       .  A
N1507      C1508   1.353       .  A
C1508      C1509   1.392       .  A
C1508      H1511   1.082       .  S
C1509      C1510   1.382       .  A
C1509      C3773   1.490       .  S
C1510      H1512   1.082       .  S
N1513      N1514   1.321       .  A
N1513      C1517   1.351       .  A
N1513     Cu1521   2.080       .  S
N1514      C1515   1.334       .  A
N1514     Cu1520   2.041       .  S
C1515      C1516   1.375       .  A
C1515      H1518   1.082       .  S
C1516      C1517   1.388       .  A
C1516      C3473   1.470       .  S
C1517      H1519   1.082       .  S
Cu1520     N1523   2.041       .  S
Cu1521     N1531   2.082       .  S
Cu1522     N1524   2.066       .  S
Cu1522     N1530   2.069       .  S
N1523      N1524   1.317       .  A
N1523      C1527   1.339       .  A
N1524      C1525   1.346       .  A
C1525      C1526   1.388       .  A
C1525      H1528   1.082       .  S
C1526      C1527   1.381       .  A
C1526      C3213   1.475       .  S
C1527      H1529   1.082       .  S
N1530      N1531   1.323       .  A
N1530      C1534   1.340       .  A
N1531      C1532   1.347       .  A
C1532      C1533   1.388       .  A
C1532      H1535   1.082       .  S
C1533      C1534   1.383       .  A
C1533      C4293   1.482       .  S
C1534      H1536   1.080       .  S
N1537      N1538   1.321       .  A
N1537      C1541   1.354       .  A
N1537     Cu1545   2.119       .  S
N1538      C1539   1.340       .  A
N1538     Cu1544   2.049       .  S
C1539      C1540   1.381       .  A
C1539      H1542   1.082       .  S
C1540      C1541   1.399       .  A
C1540      C3190   1.496       .  S
C1541      H1543   1.080       .  S
Cu1544     N1547   2.050       .  S
Cu1545     N1555   2.120       .  S
Cu1546     N1548   2.071       .  S
Cu1546     N1554   2.073       .  S
N1547      N1548   1.318       .  A
N1547      C1551   1.339       .  A
N1548      C1549   1.346       .  A
C1549      C1550   1.391       .  A
C1549      H1552   1.080       .  S
C1550      C1551   1.384       .  A
C1550      C3200   1.485       .  S
C1551      H1553   1.082       .  S
N1554      N1555   1.324       .  A
N1554      C1558   1.341       .  A
N1555      C1556   1.355       .  A
C1556      C1557   1.398       .  A
C1556      H1559   1.080       .  S
C1557      C1558   1.385       .  A
C1557      C3853   1.501       .  S
C1558      H1560   1.081       .  S
N1561      N1562   1.321       .  A
N1561      C1565   1.347       .  A
N1561     Cu1569   2.078       .  S
N1562      C1563   1.340       .  A
N1562     Cu1568   2.054       .  S
C1563      C1564   1.378       .  A
C1563      H1566   1.082       .  S
C1564      C1565   1.387       .  A
C1564      C3180   1.470       .  S
C1565      H1567   1.082       .  S
Cu1568     N1571   2.056       .  S
Cu1569     N1579   2.079       .  S
Cu1570     N1572   2.066       .  S
Cu1570     N1578   2.068       .  S
N1571      N1572   1.319       .  A
N1571      C1575   1.339       .  A
N1572      C1573   1.346       .  A
C1573      C1574   1.388       .  A
C1573      H1576   1.081       .  S
C1574      C1575   1.383       .  A
C1574      C3203   1.480       .  S
C1575      H1577   1.082       .  S
N1578      N1579   1.324       .  A
N1578      C1582   1.343       .  A
N1579      C1580   1.346       .  A
C1580      C1581   1.381       .  A
C1580      H1583   1.082       .  S
C1581      C1582   1.378       .  A
C1581      C4323   1.467       .  S
C1582      H1584   1.082       .  S
N1585      N1586   1.321       .  A
N1585      C1589   1.348       .  A
N1585     Cu1593   2.079       .  S
N1586      C1587   1.337       .  A
N1586     Cu1592   2.038       .  S
C1587      C1588   1.374       .  A
C1587      H1590   1.082       .  S
C1588      C1589   1.388       .  A
C1588      C3160   1.468       .  S
C1589      H1591   1.082       .  S
Cu1592     N1595   2.037       .  S
Cu1593     N1603   2.080       .  S
Cu1594     N1596   2.071       .  S
Cu1594     N1602   2.075       .  S
N1595      N1596   1.318       .  A
N1595      C1599   1.337       .  A
N1596      C1597   1.348       .  A
C1597      C1598   1.389       .  A
C1597      H1600   1.081       .  S
C1598      C1599   1.379       .  A
C1598      C3173   1.475       .  S
C1599      H1601   1.081       .  S
N1602      N1603   1.323       .  A
N1602      C1606   1.341       .  A
N1603      C1604   1.346       .  A
C1604      C1605   1.388       .  A
C1604      H1607   1.079       .  S
C1605      C1606   1.386       .  A
C1605      C3933   1.487       .  S
C1606      H1608   1.081       .  S
N1609      N1610   1.320       .  A
N1609      C1613   1.358       .  A
N1609     Cu1617   2.127       .  S
N1610      C1611   1.337       .  A
N1610     Cu1616   2.033       .  S
C1611      C1612   1.375       .  A
C1611      H1614   1.082       .  S
C1612      C1613   1.401       .  A
C1612      C3193   1.490       .  S
C1613      H1615   1.082       .  S
Cu1616     N1619   2.033       .  S
Cu1617     N1627   2.131       .  S
Cu1618     N1620   2.084       .  S
Cu1618     N1626   2.089       .  S
N1619      N1620   1.316       .  A
N1619      C1623   1.336       .  A
N1620      C1621   1.350       .  A
C1621      C1622   1.395       .  A
C1621      H1624   1.082       .  S
C1622      C1623   1.380       .  A
C1622      C3170   1.481       .  S
C1623      H1625   1.081       .  S
N1626      N1627   1.329       .  A
N1626      C1630   1.345       .  A
N1627      C1628   1.354       .  A
C1628      C1629   1.392       .  A
C1628      H1631   1.082       .  S
C1629      C1630   1.381       .  A
C1629      C3150   1.491       .  S
C1630      H1632   1.082       .  S
N1633      N1634   1.319       .  A
N1633      C1637   1.348       .  A
N1633     Cu1641   2.085       .  S
N1634      C1635   1.338       .  A
N1634     Cu1640   2.041       .  S
C1635      C1636   1.380       .  A
C1635      H1638   1.080       .  S
C1636      C1637   1.393       .  A
C1636      C3183   1.483       .  S
C1637      H1639   1.081       .  S
Cu1640     N1643   2.039       .  S
Cu1641     N1651   2.086       .  S
Cu1642     N1644   2.068       .  S
Cu1642     N1650   2.072       .  S
N1643      N1644   1.318       .  A
N1643      C1647   1.338       .  A
N1644      C1645   1.348       .  A
C1645      C1646   1.386       .  A
C1645      H1648   1.082       .  S
C1646      C1647   1.377       .  A
C1646      C3140   1.469       .  S
C1647      H1649   1.082       .  S
N1650      N1651   1.323       .  A
N1650      C1654   1.340       .  A
N1651      C1652   1.348       .  A
C1652      C1653   1.390       .  A
C1652      H1655   1.080       .  S
C1653      C1654   1.385       .  A
C1653      C4033   1.489       .  S
C1654      H1656   1.081       .  S
N1657      N1658   1.322       .  A
N1657      C1661   1.358       .  A
N1657     Cu1665   2.122       .  S
N1658      C1659   1.338       .  A
N1658     Cu1664   2.046       .  S
C1659      C1660   1.376       .  A
C1659      H1662   1.082       .  S
C1660      C1661   1.397       .  A
C1660      C3130   1.487       .  S
C1661      H1663   1.082       .  S
Cu1664     N1667   2.045       .  S
Cu1665     N1675   2.124       .  S
Cu1666     N1668   2.071       .  S
Cu1666     N1674   2.073       .  S
N1667      N1668   1.318       .  A
N1667      C1671   1.341       .  A
N1668      C1669   1.344       .  A
C1669      C1670   1.388       .  A
C1669      H1672   1.082       .  S
C1670      C1671   1.380       .  A
C1670      C3143   1.474       .  S
C1671      H1673   1.082       .  S
N1674      N1675   1.325       .  A
N1674      C1678   1.344       .  A
N1675      C1676   1.355       .  A
C1676      C1677   1.394       .  A
C1676      H1679   1.082       .  S
C1677      C1678   1.380       .  A
C1677      C3253   1.489       .  S
C1678      H1680   1.082       .  S
N1681      N1682   1.321       .  A
N1681      C1685   1.350       .  A
N1681     Cu1689   2.086       .  S
N1682      C1683   1.337       .  A
N1682     Cu1688   2.041       .  S
C1683      C1684   1.374       .  A
C1683      H1686   1.082       .  S
C1684      C1685   1.388       .  A
C1684      C3110   1.468       .  S
C1685      H1687   1.082       .  S
Cu1688     N1691   2.046       .  S
Cu1689     N1699   2.087       .  S
Cu1690     N1692   2.065       .  S
Cu1690     N1698   2.068       .  S
N1691      N1692   1.316       .  A
N1691      C1695   1.338       .  A
N1692      C1693   1.347       .  A
C1693      C1694   1.391       .  A
C1693      H1696   1.080       .  S
C1694      C1695   1.384       .  A
C1694      C3123   1.484       .  S
C1695      H1697   1.082       .  S
N1698      N1699   1.323       .  A
N1698      C1702   1.340       .  A
N1699      C1700   1.347       .  A
C1700      C1701   1.390       .  A
C1700      H1703   1.080       .  S
C1701      C1702   1.384       .  A
C1701      C4063   1.487       .  S
C1702      H1704   1.081       .  S
N1705      N1706   1.321       .  A
N1705      C1709   1.358       .  A
N1705     Cu1713   2.122       .  S
N1706      C1707   1.337       .  A
N1706     Cu1712   2.051       .  S
C1707      C1708   1.380       .  A
C1707      H1710   1.082       .  S
C1708      C1709   1.401       .  A
C1708      C3133   1.497       .  S
C1709      H1711   1.081       .  S
Cu1712     N1715   2.048       .  S
Cu1713     N1723   2.124       .  S
Cu1714     N1716   2.071       .  S
Cu1714     N1722   2.074       .  S
N1715      N1716   1.318       .  A
N1715      C1719   1.341       .  A
N1716      C1717   1.346       .  A
C1717      C1718   1.387       .  A
C1717      H1720   1.082       .  S
C1718      C1719   1.380       .  A
C1718      C3120   1.468       .  S
C1719      H1721   1.082       .  S
N1722      N1723   1.325       .  A
N1722      C1726   1.342       .  A
N1723      C1724   1.355       .  A
C1724      C1725   1.396       .  A
C1724      H1727   1.081       .  S
C1725      C1726   1.382       .  A
C1725      C3100   1.495       .  S
C1726      H1728   1.082       .  S
N1729      N1730   1.323       .  A
N1729      C1733   1.354       .  A
N1729     Cu1737   2.120       .  S
N1730      C1731   1.340       .  A
N1730     Cu1736   2.042       .  S
C1731      C1732   1.373       .  A
C1731      H1734   1.082       .  S
C1732      C1733   1.393       .  A
C1732      C3080   1.479       .  S
C1733      H1735   1.081       .  S
Cu1736     N1739   2.043       .  S
Cu1737     N1747   2.121       .  S
Cu1738     N1740   2.069       .  S
Cu1738     N1746   2.070       .  S
N1739      N1740   1.318       .  A
N1739      C1743   1.340       .  A
N1740      C1741   1.344       .  A
C1741      C1742   1.388       .  A
C1741      H1744   1.081       .  S
C1742      C1743   1.380       .  A
C1742      C3090   1.476       .  S
C1743      H1745   1.082       .  S
N1746      N1747   1.324       .  A
N1746      C1750   1.341       .  A
N1747      C1748   1.355       .  A
C1748      C1749   1.395       .  A
C1748      H1751   1.082       .  S
C1749      C1750   1.381       .  A
C1749      C3553   1.493       .  S
C1750      H1752   1.081       .  S
N1753      N1754   1.321       .  A
N1753      C1757   1.347       .  A
N1753     Cu1761   2.076       .  S
N1754      C1755   1.340       .  A
N1754     Cu1760   2.043       .  S
C1755      C1756   1.374       .  A
C1755      H1758   1.082       .  S
C1756      C1757   1.384       .  A
C1756      C3113   1.464       .  S
C1757      H1759   1.082       .  S
Cu1760     N1763   2.044       .  S
Cu1761     N1771   2.078       .  S
Cu1762     N1764   2.073       .  S
Cu1762     N1770   2.074       .  S
N1763      N1764   1.320       .  A
N1763      C1767   1.338       .  A
N1764      C1765   1.347       .  A
C1765      C1766   1.386       .  A
C1765      H1768   1.082       .  S
C1766      C1767   1.376       .  A
C1766      C3093   1.467       .  S
C1767      H1769   1.082       .  S
N1770      N1771   1.322       .  A
N1770      C1774   1.341       .  A
N1771      C1772   1.346       .  A
C1772      C1773   1.389       .  A
C1772      H1775   1.080       .  S
C1773      C1774   1.387       .  A
C1773      C4253   1.488       .  S
C1774      H1776   1.081       .  S
N1777      N1778   1.318       .  A
N1777      C1781   1.352       .  A
N1777     Cu1785   2.091       .  S
N1778      C1779   1.334       .  A
N1778     Cu1784   2.022       .  S
C1779      C1780   1.373       .  A
C1779      H1782   1.082       .  S
C1780      C1781   1.394       .  A
C1780      C3060   1.473       .  S
C1781      H1783   1.082       .  S
Cu1784     N1787   2.022       .  S
Cu1785     N1795   2.096       .  S
Cu1786     N1788   2.075       .  S
Cu1786     N1794   2.079       .  S
N1787      N1788   1.316       .  A
N1787      C1791   1.332       .  A
N1788      C1789   1.351       .  A
C1789      C1790   1.392       .  A
C1789      H1792   1.081       .  S
C1790      C1791   1.376       .  A
C1790      C3070   1.474       .  S
C1791      H1793   1.082       .  S
N1794      N1795   1.327       .  A
N1794      C1798   1.341       .  A
N1795      C1796   1.348       .  A
C1796      C1797   1.386       .  A
C1796      H1799   1.082       .  S
C1797      C1798   1.381       .  A
C1797      C4143   1.481       .  S
C1798      H1800   1.081       .  S
N1801      N1802   1.321       .  A
N1801      C1805   1.357       .  A
N1801     Cu1809   2.122       .  S
N1802      C1803   1.337       .  A
N1802     Cu1808   2.038       .  S
C1803      C1804   1.374       .  A
C1803      H1806   1.082       .  S
C1804      C1805   1.397       .  A
C1804      C3083   1.485       .  S
C1805      H1807   1.082       .  S
Cu1808     N1811   2.042       .  S
Cu1809     N1819   2.125       .  S
Cu1810     N1812   2.065       .  S
Cu1810     N1818   2.069       .  S
N1811      N1812   1.318       .  A
N1811      C1815   1.338       .  A
N1812      C1813   1.347       .  A
C1813      C1814   1.387       .  A
C1813      H1816   1.081       .  S
C1814      C1815   1.379       .  A
C1814      C3073   1.472       .  S
C1815      H1817   1.082       .  S
N1818      N1819   1.326       .  A
N1818      C1822   1.343       .  A
N1819      C1820   1.355       .  A
C1820      C1821   1.392       .  A
C1820      H1823   1.081       .  S
C1821      C1822   1.377       .  A
C1821      C3343   1.482       .  S
C1822      H1824   1.082       .  S
N1825      N1826   1.319       .  A
N1825      C1829   1.356       .  A
N1825     Cu1833   2.121       .  S
N1826      C1827   1.337       .  A
N1826     Cu1832   2.039       .  S
C1827      C1828   1.380       .  A
C1827      H1830   1.081       .  S
C1828      C1829   1.402       .  A
C1828      C3040   1.497       .  S
C1829      H1831   1.081       .  S
Cu1832     N1835   2.044   1_655  S
Cu1833     N1843   2.125       .  S
Cu1834     N1836   2.068       .  S
Cu1834     N1842   2.073       .  S
N1835      N1836   1.319   1_455  A
N1835      C1839   1.337       .  A
N1836      C1837   1.349   1_655  A
C1837      C1838   1.385       .  A
C1837      H1840   1.082       .  S
C1838      C1839   1.376       .  A
C1838      C3050   1.465       .  S
C1839      H1841   1.082       .  S
N1842      N1843   1.326       .  A
N1842      C1846   1.343       .  A
N1843      C1844   1.354       .  A
C1844      C1845   1.393       .  A
C1844      H1847   1.081       .  S
C1845      C1846   1.380       .  A
C1845      C3030   1.489       .  S
C1846      H1848   1.082       .  S
N1849      N1850   1.321       .  A
N1849      C1853   1.348       .  A
N1849     Cu1857   2.087       .  S
N1850      C1851   1.339       .  A
N1850     Cu1856   2.042       .  S
C1851      C1852   1.376       .  A
C1851      H1854   1.082       .  S
C1852      C1853   1.389       .  A
C1852      C3063   1.472       .  S
C1853      H1855   1.082       .  S
Cu1856     N1859   2.047       .  S
Cu1857     N1867   2.088       .  S
Cu1858     N1860   2.062       .  S
Cu1858     N1866   2.065       .  S
N1859      N1860   1.319       .  A
N1859      C1863   1.338       .  A
N1860      C1861   1.348       .  A
C1861      C1862   1.384       .  A
C1861      H1864   1.081       .  S
C1862      C1863   1.378       .  A
C1862      C3053   1.466       .  S
C1863      H1865   1.082       .  S
N1866      N1867   1.323       .  A
N1866      C1870   1.341       .  A
N1867      C1868   1.347       .  A
C1868      C1869   1.390       .  A
C1868      H1871   1.082       .  S
C1869      C1870   1.384       .  A
C1869      C3950   1.485       .  S
C1870      H1872   1.080       .  S
N1873      N1874   1.319       .  A
N1873      C1877   1.351       .  A
N1873     Cu1881   2.077       .  S
N1874      C1875   1.331       .  A
N1874     Cu1880   2.034       .  S
C1875      C1876   1.378       .  A
C1875      H1878   1.082       .  S
C1876      C1877   1.393       .  A
C1876      C3010   1.480       .  S
C1877      H1879   1.081       .  S
Cu1880     N1883   2.035       .  S
Cu1881     N1891   2.080       .  S
Cu1882     N1884   2.064       .  S
Cu1882     N1890   2.069       .  S
N1883      N1884   1.317       .  A
N1883      C1887   1.339       .  A
N1884      C1885   1.346       .  A
C1885      C1886   1.386       .  A
C1885      H1888   1.082       .  S
C1886      C1887   1.377       .  A
C1886      C3020   1.468       .  S
C1887      H1889   1.082       .  S
N1890      N1891   1.324       .  A
N1890      C1894   1.339       .  A
N1891      C1892   1.346       .  A
C1892      C1893   1.388       .  A
C1892      H1895   1.080       .  S
C1893      C1894   1.383       .  A
C1893      C4303   1.483       .  S
C1894      H1896   1.081       .  S
N1897      N1898   1.322       .  A
N1897      C1901   1.354       .  A
N1897     Cu1905   2.118       .  S
N1898      C1899   1.341       .  A
N1898     Cu1904   2.046       .  S
C1899      C1900   1.377       .  A
C1899      H1902   1.082       .  S
C1900      C1901   1.396       .  A
C1900      C3043   1.486       .  S
C1901      H1903   1.081       .  S
Cu1904     N1907   2.044       .  S
Cu1905     N1915   2.119       .  S
Cu1906     N1908   2.074       .  S
Cu1906     N1914   2.076       .  S
N1907      N1908   1.319       .  A
N1907      C1911   1.340       .  A
N1908      C1909   1.346       .  A
C1909      C1910   1.388       .  A
C1909      H1912   1.082       .  S
C1910      C1911   1.380       .  A
C1910      C3023   1.474       .  S
C1911      H1913   1.082       .  S
N1914      N1915   1.324       .  A
N1914      C1918   1.343       .  A
N1915      C1916   1.355       .  A
C1916      C1917   1.397       .  A
C1916      H1919   1.081       .  S
C1917      C1918   1.385       .  A
C1917      C3583   1.499       .  S
C1918      H1920   1.082       .  S
N1921      N1922   1.319       .  A
N1921      C1925   1.346       .  A
N1921     Cu1929   2.076       .  S
N1922      C1923   1.339       .  A
N1922     Cu1928   2.046       .  S
C1923      C1924   1.381       .  A
C1923      H1926   1.081       .  S
C1924      C1925   1.391       .  A
C1924      C2993   1.482       .  S
C1925      H1927   1.082       .  S
Cu1928     N1931   2.044       .  S
Cu1929     N1939   2.078       .  S
Cu1930     N1932   2.075       .  S
Cu1930     N1938   2.075       .  S
N1931      N1932   1.320       .  A
N1931      C1935   1.339       .  A
N1932      C1933   1.347       .  A
C1933      C1934   1.387       .  A
C1933      H1936   1.082       .  S
C1934      C1935   1.378       .  A
C1934      C3000   1.471       .  S
C1935      H1937   1.082       .  S
N1938      N1939   1.323       .  A
N1938      C1942   1.342       .  A
N1939      C1940   1.346       .  A
C1940      C1941   1.386       .  A
C1940      H1943   1.082       .  S
C1941      C1942   1.384       .  A
C1941      C4193   1.483       .  S
C1942      H1944   1.080       .  S
N1945      N1946   1.320       .  A
N1945      C1949   1.356       .  A
N1945     Cu1953   2.115       .  S
N1946      C1947   1.336       .  A
N1946     Cu1952   2.038       .  S
C1947      C1948   1.377       .  A
C1947      H1950   1.082       .  S
C1948      C1949   1.398       .  A
C1948      C2980   1.488       .  S
C1949      H1951   1.082       .  S
Cu1952     N1955   2.037       .  S
Cu1953     N1963   2.119       .  S
Cu1954     N1956   2.078       .  S
Cu1954     N1962   2.082       .  S
N1955      N1956   1.319       .  A
N1955      C1959   1.339       .  A
N1956      C1957   1.348       .  A
C1957      C1958   1.386       .  A
C1957      H1960   1.082       .  S
C1958      C1959   1.375       .  A
C1958      C3003   1.466       .  S
C1959      H1961   1.082       .  S
N1962      N1963   1.326       .  A
N1962      C1966   1.345       .  A
N1963      C1964   1.353       .  A
C1964      C1965   1.392       .  A
C1964      H1967   1.082       .  S
C1965      C1966   1.383       .  A
C1965      C2970   1.490       .  S
C1966      H1968   1.082       .  S
N1969      N1970   1.319       .  A
N1969      C1973   1.349       .  A
N1969     Cu1977   2.072       .  S
N1970      C1971   1.333       .  A
N1970     Cu1976   2.037       .  S
C1971      C1972   1.377       .  A
C1971      H1974   1.081       .  S
C1972      C1973   1.389       .  A
C1972      C3013   1.473       .  S
C1973      H1975   1.082       .  S
Cu1976     N1979   2.037       .  S
Cu1977     N1987   2.075       .  S
Cu1978     N1980   2.074       .  S
Cu1978     N1986   2.078       .  S
N1979      N1980   1.318       .  A
N1979      C1983   1.339       .  A
N1980      C1981   1.348       .  A
C1981      C1982   1.388       .  A
C1981      H1984   1.082       .  S
C1982      C1983   1.377       .  A
C1982      C2960   1.471       .  S
C1983      H1985   1.082       .  S
N1986      N1987   1.326       .  A
N1986      C1990   1.343       .  A
N1987      C1988   1.345       .  A
C1988      C1989   1.381       .  A
C1988      H1991   1.082       .  S
C1989      C1990   1.380       .  A
C1989      C3890   1.470       .  S
C1990      H1992   1.082       .  S
N1993      N1994   1.321       .  A
N1993      C1997   1.357       .  A
N1993     Cu2001   2.113       .  S
N1994      C1995   1.337       .  A
N1994     Cu2000   2.044       .  S
C1995      C1996   1.377       .  A
C1995      H1998   1.082       .  S
C1996      C1997   1.397       .  A
C1996      C2983   1.486       .  S
C1997      H1999   1.082       .  S
Cu2000     N2003   2.043   1_554  S
Cu2001     N2011   2.116       .  S
Cu2002     N2004   2.078       .  S
Cu2002     N2010   2.081       .  S
N2003      N2004   1.318       .  A
N2003      C2007   1.340       .  A
N2004      C2005   1.347       .  A
C2005      C2006   1.390       .  A
C2005      H2008   1.082       .  S
C2006      C2007   1.380       .  A
C2006      C2963   1.477       .  S
C2007      H2009   1.082   1_556  S
N2010      N2011   1.325   1_556  A
N2010      C2014   1.345       .  A
N2011      C2012   1.353       .  A
C2012      C2013   1.393   1_554  A
C2012      H2015   1.081       .  S
C2013      C2014   1.383       .  A
C2013      C3223   1.492       .  S
C2014      H2016   1.082       .  S
N2017      N2018   1.322       .  A
N2017      C2021   1.355       .  A
N2017     Cu2025   2.124       .  S
N2018      C2019   1.341       .  A
N2018     Cu2024   2.045       .  S
C2019      C2020   1.375       .  A
C2019      H2022   1.082       .  S
C2020      C2021   1.395       .  A
C2020      C2940   1.483       .  S
C2021      H2023   1.082       .  S
Cu2024     N2027   2.044       .  S
Cu2025     N2035   2.126       .  S
Cu2026     N2028   2.075       .  S
Cu2026     N2034   2.077       .  S
N2027      N2028   1.318       .  A
N2027      C2031   1.339       .  A
N2028      C2029   1.346       .  A
C2029      C2030   1.391       .  A
C2029      H2032   1.082       .  S
C2030      C2031   1.382       .  A
C2030      C2950   1.480       .  S
C2031      H2033   1.081       .  S
N2034      N2035   1.326       .  A
N2034      C2038   1.344       .  A
N2035      C2036   1.355       .  A
C2036      C2037   1.393       .  A
C2036      H2039   1.082       .  S
C2037      C2038   1.380       .  A
C2037      C3493   1.489       .  S
C2038      H2040   1.082       .  S
N2041      N2042   1.319       .  A
N2041      C2045   1.347       .  A
N2041     Cu2049   2.077       .  S
N2042      C2043   1.337       .  A
N2042     Cu2048   2.042       .  S
C2043      C2044   1.379       .  A
C2043      H2046   1.082       .  S
C2044      C2045   1.391       .  A
C2044      C3163   1.480       .  S
C2045      H2047   1.081       .  S
Cu2048     N2051   2.042       .  S
Cu2049     N2059   2.079       .  S
Cu2050     N2052   2.070       .  S
Cu2050     N2058   2.073       .  S
N2051      N2052   1.319       .  A
N2051      C2055   1.338       .  A
N2052      C2053   1.347       .  A
C2053      C2054   1.387       .  A
C2053      H2056   1.081       .  S
C2054      C2055   1.380       .  A
C2054      C2953   1.475       .  S
C2055      H2057   1.081       .  S
N2058      N2059   1.324       .  A
N2058      C2062   1.342       .  A
N2059      C2060   1.346       .  A
C2060      C2061   1.385       .  A
C2060      H2063   1.082       .  S
C2061      C2062   1.382       .  A
C2061      C4080   1.478       .  S
C2062      H2064   1.081       .  S
N2065      N2066   1.321       .  A
N2065      C2069   1.357       .  A
N2065     Cu2073   2.127       .  S
N2066      C2067   1.338       .  A
N2066     Cu2072   2.038   1_545  S
C2067      C2068   1.376       .  A
C2067      H2070   1.081       .  S
C2068      C2069   1.399       .  A
C2068      C2943   1.490       .  S
C2069      H2071   1.082       .  S
Cu2072     N2075   2.043       .  S
Cu2073     N2083   2.130       .  S
Cu2074     N2076   2.065       .  S
Cu2074     N2082   2.070       .  S
N2075      N2076   1.318       .  A
N2075      C2079   1.337       .  A
N2076      C2077   1.349       .  A
C2077      C2078   1.386       .  A
C2077      H2080   1.082       .  S
C2078      C2079   1.378       .  A
C2078      C2933   1.467       .  S
C2079      H2081   1.082       .  S
N2082      N2083   1.325   1_565  A
N2082      C2086   1.341       .  A
N2083      C2084   1.356       .  A
C2084      C2085   1.396   1_545  A
C2084      H2087   1.081       .  S
C2085      C2086   1.381       .  A
C2085      C3733   1.495       .  S
C2086      H2088   1.081       .  S
N2089      N2090   1.320       .  A
N2089      C2093   1.348       .  A
N2089     Cu2097   2.079       .  S
N2090      C2091   1.339       .  A
N2090     Cu2096   2.047       .  S
C2091      C2092   1.377       .  A
C2091      H2094   1.082       .  S
C2092      C2093   1.387       .  A
C2092      C2990   1.469       .  S
C2093      H2095   1.082       .  S
Cu2096     N2099   2.051       .  S
Cu2097     N2107   2.081       .  S
Cu2098     N2100   2.064       .  S
Cu2098     N2106   2.067       .  S
N2099      N2100   1.320       .  A
N2099      C2103   1.338       .  A
N2100      C2101   1.348       .  A
C2101      C2102   1.383       .  A
C2101      H2104   1.082       .  S
C2102      C2103   1.377       .  A
C2102      C2930   1.465       .  S
C2103      H2105   1.082       .  S
N2106      N2107   1.325       .  A
N2106      C2110   1.342       .  A
N2107      C2108   1.346       .  A
C2108      C2109   1.380       .  A
C2108      H2111   1.082       .  S
C2109      C2110   1.377       .  A
C2109      C4343   1.464       .  S
C2110      H2112   1.082       .  S
N2113      N2114   1.316       .  A
N2113      C2117   1.353       .  A
N2113     Cu2121   2.114       .  S
N2114      C2115   1.336       .  A
N2114     Cu2120   2.040       .  S
C2115      C2116   1.389       .  A
C2115      H2118   1.080       .  S
C2116      C2117   1.407       .  A
C2116      C2913   1.514       .  S
C2117      H2119   1.077       .  S
Cu2120     N2123   2.038       .  S
Cu2121     N2131   2.117       .  S
Cu2122     N2124   2.078       .  S
Cu2122     N2130   2.081       .  S
N2123      N2124   1.319       .  A
N2123      C2127   1.339       .  A
N2124      C2125   1.347       .  A
C2125      C2126   1.389       .  A
C2125      H2128   1.082       .  S
C2126      C2127   1.378       .  A
C2126      C2920   1.473       .  S
C2127      H2129   1.082       .  S
N2130      N2131   1.326       .  A
N2130      C2134   1.345       .  A
N2131      C2132   1.352       .  A
C2132      C2133   1.392       .  A
C2132      H2135   1.082       .  S
C2133      C2134   1.383       .  A
C2133      C2973   1.489       .  S
C2134      H2136   1.082       .  S
N2137      N2138   1.317       .  A
N2137      C2141   1.348       .  A
N2137     Cu2145   2.079       .  S
N2138      C2139   1.336       .  A
N2138     Cu2144   2.037       .  S
C2139      C2140   1.382       .  A
C2139      H2142   1.081       .  S
C2140      C2141   1.395       .  A
C2140      C2900   1.489       .  S
C2141      H2143   1.078       .  S
Cu2144     N2147   2.036       .  S
Cu2145     N2155   2.082       .  S
Cu2146     N2148   2.076       .  S
Cu2146     N2154   2.078       .  S
N2147      N2148   1.318       .  A
N2147      C2151   1.337       .  A
N2148      C2149   1.347       .  A
C2149      C2150   1.391       .  A
C2149      H2152   1.081       .  S
C2150      C2151   1.379       .  A
C2150      C2923   1.477       .  S
C2151      H2153   1.082       .  S
N2154      N2155   1.325       .  A
N2154      C2158   1.343       .  A
N2155      C2156   1.346       .  A
C2156      C2157   1.385       .  A
C2156      H2159   1.082       .  S
C2157      C2158   1.383       .  A
C2157      C4233   1.482       .  S
C2158      H2160   1.081       .  S
N2161      N2162   1.321       .  A
N2161      C2165   1.356       .  A
N2161     Cu2169   2.120       .  S
N2162      C2163   1.337       .  A
N2162     Cu2168   2.034       .  S
C2163      C2164   1.371       .  A
C2163      H2166   1.082       .  S
C2164      C2165   1.395       .  A
C2164      C2910   1.477       .  S
C2165      H2167   1.082       .  S
Cu2168     N2171   2.035   1_554  S
Cu2169     N2179   2.123       .  S
Cu2170     N2172   2.078       .  S
Cu2170     N2178   2.082       .  S
N2171      N2172   1.318       .  A
N2171      C2175   1.338       .  A
N2172      C2173   1.349       .  A
C2173      C2174   1.387       .  A
C2173      H2176   1.082       .  S
C2174      C2175   1.375       .  A
C2174      C2893   1.467       .  S
C2175      H2177   1.082       .  S
N2178      N2179   1.327   1_556  A
N2178      C2182   1.344       .  A
N2179      C2180   1.354       .  A
C2180      C2181   1.392   1_554  A
C2180      H2183   1.082       .  S
C2181      C2182   1.381       .  A
C2181      C3793   1.488       .  S
C2182      H2184   1.082       .  S
N2185      N2186   1.322       .  A
N2185      C2189   1.348       .  A
N2185     Cu2193   2.071       .  S
N2186      C2187   1.338       .  A
N2186     Cu2192   2.051       .  S
C2187      C2188   1.376       .  A
C2187      H2190   1.082       .  S
C2188      C2189   1.384       .  A
C2188      C2883   1.467       .  S
C2189      H2191   1.082       .  S
Cu2192     N2195   2.049       .  S
Cu2193     N2203   2.072       .  S
Cu2194     N2196   2.071       .  S
Cu2194     N2202   2.072       .  S
N2195      N2196   1.319       .  A
N2195      C2199   1.341       .  A
N2196      C2197   1.345       .  A
C2197      C2198   1.385       .  A
C2197      H2200   1.082       .  S
C2198      C2199   1.378       .  A
C2198      C2890   1.466       .  S
C2199      H2201   1.082       .  S
N2202      N2203   1.324       .  A
N2202      C2206   1.343       .  A
N2203      C2204   1.345       .  A
C2204      C2205   1.382       .  A
C2204      H2207   1.082       .  S
C2205      C2206   1.380       .  A
C2205      C4363   1.470       .  S
C2206      H2208   1.082       .  S
N2209      N2210   1.320       .  A
N2209      C2213   1.353       .  A
N2209     Cu2217   2.118       .  S
N2210      C2211   1.341       .  A
N2210     Cu2216   2.049       .  S
C2211      C2212   1.383       .  A
C2211      H2214   1.082       .  S
C2212      C2213   1.402       .  A
C2212      C2860   1.502       .  S
C2213      H2215   1.079       .  S
Cu2216     N2219   2.046       .  S
Cu2217     N2227   2.120       .  S
Cu2218     N2220   2.078       .  S
Cu2218     N2226   2.080       .  S
N2219      N2220   1.320       .  A
N2219      C2223   1.341       .  A
N2220      C2221   1.346       .  A
C2221      C2222   1.387       .  A
C2221      H2224   1.082       .  S
C2222      C2223   1.378       .  A
C2222      C2870   1.470       .  S
C2223      H2225   1.082       .  S
N2226      N2227   1.325       .  A
N2226      C2230   1.345       .  A
N2227      C2228   1.353       .  A
C2228      C2229   1.394       .  A
C2228      H2231   1.082       .  S
C2229      C2230   1.384       .  A
C2229      C3533   1.493       .  S
C2230      H2232   1.082       .  S
N2233      N2234   1.321       .  A
N2233      C2237   1.350       .  A
N2233     Cu2241   2.081       .  S
N2234      C2235   1.337       .  A
N2234     Cu2240   2.040       .  S
C2235      C2236   1.373       .  A
C2235      H2238   1.082       .  S
C2236      C2237   1.386       .  A
C2236      C2853   1.464       .  S
C2237      H2239   1.082       .  S
Cu2240     N2243   2.039       .  S
Cu2241     N2251   2.083       .  S
Cu2242     N2244   2.075       .  S
Cu2242     N2250   2.078       .  S
N2243      N2244   1.319       .  A
N2243      C2247   1.338       .  A
N2244      C2245   1.348       .  A
C2245      C2246   1.386       .  A
C2245      H2248   1.082       .  S
C2246      C2247   1.376       .  A
C2246      C2873   1.467       .  S
C2247      H2249   1.082       .  S
N2250      N2251   1.325       .  A
N2250      C2254   1.343       .  A
N2251      C2252   1.346       .  A
C2252      C2253   1.383       .  A
C2252      H2255   1.082       .  S
C2253      C2254   1.381       .  A
C2253      C4310   1.476       .  S
C2254      H2256   1.082       .  S
N2257      N2258   1.320       .  A
N2257      C2261   1.347       .  A
N2257     Cu2265   2.079       .  S
N2258      C2259   1.338       .  A
N2258     Cu2264   2.043       .  S
C2259      C2260   1.376       .  A
C2259      H2262   1.082       .  S
C2260      C2261   1.389       .  A
C2260      C2903   1.472       .  S
C2261      H2263   1.082       .  S
Cu2264     N2267   2.047       .  S
Cu2265     N2275   2.081       .  S
Cu2266     N2268   2.062       .  S
Cu2266     N2274   2.066       .  S
N2267      N2268   1.319       .  A
N2267      C2271   1.338       .  A
N2268      C2269   1.347       .  A
C2269      C2270   1.384       .  A
C2269      H2272   1.082       .  S
C2270      C2271   1.378       .  A
C2270      C2840   1.467       .  S
C2271      H2273   1.082       .  S
N2274      N2275   1.323       .  A
N2274      C2278   1.340       .  A
N2275      C2276   1.345       .  A
C2276      C2277   1.387       .  A
C2276      H2279   1.080       .  S
C2277      C2278   1.383       .  A
C2277      C3903   1.483       .  S
C2278      H2280   1.082       .  S
N2281      N2282   1.321       .  A
N2281      C2285   1.358       .  A
N2281     Cu2289   2.132       .  S
N2282      C2283   1.337       .  A
N2282     Cu2288   2.032       .  S
C2283      C2284   1.373       .  A
C2283      H2286   1.082       .  S
C2284      C2285   1.400       .  A
C2284      C2863   1.487       .  S
C2285      H2287   1.082       .  S
Cu2288     N2291   2.036       .  S
Cu2289     N2299   2.135       .  S
Cu2290     N2292   2.066       .  S
Cu2290     N2298   2.071       .  S
N2291      N2292   1.317       .  A
N2291      C2295   1.336       .  A
N2292      C2293   1.349       .  A
C2293      C2294   1.387       .  A
C2293      H2296   1.082       .  S
C2294      C2295   1.377       .  A
C2294      C2843   1.466       .  S
C2295      H2297   1.082       .  S
N2298      N2299   1.326       .  A
N2298      C2302   1.340       .  A
N2299      C2300   1.357       .  A
C2300      C2301   1.400       .  A
C2300      H2303   1.080       .  S
C2301      C2302   1.383       .  A
C2301      C3363   1.502       .  S
C2302      H2304   1.082       .  S
N2305      N2306   1.318       .  A
N2305      C2309   1.346       .  A
N2305     Cu2313   2.070       .  S
N2306      C2307   1.339       .  A
N2306     Cu2312   2.056       .  S
C2307      C2308   1.387       .  A
C2307      H2310   1.081       .  S
C2308      C2309   1.392       .  A
C2308      C2850   1.490       .  S
C2309      H2311   1.079       .  S
Cu2312     N2315   2.058       .  S
Cu2313     N2323   2.072       .  S
Cu2314     N2316   2.074       .  S
Cu2314     N2322   2.073       .  S
N2315      N2316   1.321       .  A
N2315      C2319   1.341       .  A
N2316      C2317   1.346       .  A
C2317      C2318   1.386       .  A
C2317      H2320   1.082       .  S
C2318      C2319   1.380       .  A
C2318      C2830   1.474       .  S
C2319      H2321   1.082       .  S
N2322      N2323   1.320       .  A
N2322      C2326   1.342       .  A
N2323      C2324   1.345       .  A
C2324      C2325   1.389       .  A
C2324      H2327   1.080       .  S
C2325      C2326   1.388       .  A
C2325      C4003   1.489       .  S
C2326      H2328   1.081       .  S
N2329      N2330   1.320       .  A
N2329      C2333   1.357       .  A
N2329     Cu2337   2.119       .  S
N2330      C2331   1.336       .  A
N2330     Cu2336   2.041       .  S
C2331      C2332   1.379       .  A
C2331      H2334   1.082       .  S
C2332      C2333   1.400       .  A
C2332      C2820   1.494       .  S
C2333      H2335   1.081       .  S
Cu2336     N2339   2.041       .  S
Cu2337     N2347   2.122       .  S
Cu2338     N2340   2.081       .  S
Cu2338     N2346   2.084       .  S
N2339      N2340   1.319       .  A
N2339      C2343   1.340       .  A
N2340      C2341   1.348       .  A
C2341      C2342   1.386       .  A
C2341      H2344   1.082       .  S
C2342      C2343   1.377       .  A
C2342      C2833   1.469       .  S
C2343      H2345   1.082       .  S
N2346      N2347   1.326       .  A
N2346      C2350   1.346       .  A
N2347      C2348   1.354       .  A
C2348      C2349   1.392       .  A
C2348      H2351   1.082       .  S
C2349      C2350   1.383       .  A
C2349      C3153   1.491       .  S
C2350      H2352   1.082       .  S
N2353      N2354   1.321       .  A
N2353      C2357   1.357       .  A
N2353     Cu2361   2.118       .  S
N2354      C2355   1.337       .  A
N2354     Cu2360   2.041       .  S
C2355      C2356   1.376       .  A
C2355      H2358   1.082       .  S
C2356      C2357   1.397       .  A
C2356      C2823   1.485       .  S
C2357      H2359   1.081       .  S
Cu2360     N2363   2.041       .  S
Cu2361     N2371   2.121       .  S
Cu2362     N2364   2.081       .  S
Cu2362     N2370   2.084       .  S
N2363      N2364   1.320       .  A
N2363      C2367   1.339       .  A
N2364      C2365   1.349       .  A
C2365      C2366   1.387       .  A
C2365      H2368   1.082       .  S
C2366      C2367   1.375       .  A
C2366      C2813   1.467       .  S
C2367      H2369   1.082       .  S
N2370      N2371   1.326       .  A
N2370      C2374   1.346       .  A
N2371      C2372   1.353       .  A
C2372      C2373   1.393       .  A
C2372      H2375   1.081       .  S
C2373      C2374   1.383       .  A
C2373      C3403   1.493       .  S
C2374      H2376   1.082       .  S
N2377      N2378   1.319       .  A
N2377      C2381   1.349       .  A
N2377     Cu2385   2.073       .  S
N2378      C2379   1.336       .  A
N2378     Cu2384   2.045       .  S
C2379      C2380   1.379       .  A
C2379      H2382   1.081       .  S
C2380      C2381   1.389       .  A
C2380      C2800   1.477       .  S
C2381      H2383   1.082       .  S
Cu2384     N2387   2.043       .  S
Cu2385     N2395   2.077       .  S
Cu2386     N2388   2.076       .  S
Cu2386     N2394   2.078       .  S
N2387      N2388   1.319       .  A
N2387      C2391   1.339       .  A
N2388      C2389   1.347       .  A
C2389      C2390   1.388       .  A
C2389      H2392   1.082       .  S
C2390      C2391   1.378       .  A
C2390      C2810   1.470       .  S
C2391      H2393   1.082       .  S
N2394      N2395   1.323       .  A
N2394      C2398   1.342       .  A
N2395      C2396   1.345       .  A
C2396      C2397   1.387       .  A
C2396      H2399   1.081       .  S
C2397      C2398   1.385       .  A
C2397      C4093   1.484       .  S
C2398      H2400   1.082       .  S
N2401      N2402   1.321       .  A
N2401      C2405   1.358       .  A
N2401     Cu2409   2.122       .  S
N2402      C2403   1.338       .  A
N2402     Cu2408   2.042       .  S
C2403      C2404   1.376       .  A
C2403      H2406   1.082       .  S
C2404      C2405   1.397       .  A
C2404      C2780   1.486       .  S
C2405      H2407   1.082       .  S
Cu2408     N2411   2.043       .  S
Cu2409     N2419   2.125       .  S
Cu2410     N2412   2.074       .  S
Cu2410     N2418   2.076       .  S
N2411      N2412   1.319       .  A
N2411      C2415   1.340       .  A
N2412      C2413   1.347       .  A
C2413      C2414   1.386       .  A
C2413      H2416   1.082       .  S
C2414      C2415   1.378       .  A
C2414      C2793   1.471       .  S
C2415      H2417   1.082       .  S
N2418      N2419   1.326       .  A
N2418      C2422   1.344       .  A
N2419      C2420   1.355       .  A
C2420      C2421   1.395       .  A
C2420      H2423   1.082       .  S
C2421      C2422   1.380       .  A
C2421      C3653   1.491       .  S
C2422      H2424   1.082       .  S
N2425      N2426   1.319       .  A
N2425      C2429   1.352       .  A
N2425     Cu2433   2.084       .  S
N2426      C2427   1.333       .  A
N2426     Cu2432   2.038       .  S
C2427      C2428   1.378       .  A
C2427      H2430   1.082       .  S
C2428      C2429   1.393       .  A
C2428      C2803   1.480       .  S
C2429      H2431   1.081       .  S
Cu2432     N2435   2.038       .  S
Cu2433     N2443   2.088       .  S
Cu2434     N2436   2.071       .  S
Cu2434     N2442   2.075       .  S
N2435      N2436   1.317       .  A
N2435      C2439   1.339       .  A
N2436      C2437   1.346       .  A
C2437      C2438   1.390       .  A
C2437      H2440   1.082       .  S
C2438      C2439   1.380       .  A
C2438      C2790   1.476       .  S
C2439      H2441   1.082       .  S
N2442      N2443   1.326       .  A
N2442      C2446   1.343       .  A
N2443      C2444   1.347       .  A
C2444      C2445   1.383       .  A
C2444      H2447   1.082       .  S
C2445      C2446   1.379       .  A
C2445      C4263   1.473       .  S
C2446      H2448   1.082       .  S
N2449      N2450   1.321       .  A
N2449      C2453   1.347       .  A
N2449     Cu2457   2.074       .  S
N2450      C2451   1.341       .  A
N2450     Cu2456   2.048       .  S
C2451      C2452   1.375       .  A
C2451      H2454   1.082       .  S
C2452      C2453   1.384       .  A
C2452      C2760   1.464       .  S
C2453      H2455   1.082       .  S
Cu2456     N2459   2.045       .  S
Cu2457     N2467   2.075       .  S
Cu2458     N2460   2.076       .  S
Cu2458     N2466   2.078       .  S
N2459      N2460   1.321       .  A
N2459      C2463   1.339       .  A
N2460      C2461   1.347       .  A
C2461      C2462   1.385       .  A
C2461      H2464   1.082       .  S
C2462      C2463   1.376       .  A
C2462      C2770   1.465       .  S
C2463      H2465   1.082       .  S
N2466      N2467   1.324       .  A
N2466      C2470   1.344       .  A
N2467      C2468   1.346       .  A
C2468      C2469   1.381       .  A
C2468      H2471   1.082       .  S
C2469      C2470   1.381       .  A
C2469      C4173   1.471       .  S
C2470      H2472   1.082       .  S
N2473      N2474   1.320       .  A
N2473      C2477   1.357       .  A
N2473     Cu2481   2.119       .  S
N2474      C2475   1.337       .  A
N2474     Cu2480   2.045       .  S
C2475      C2476   1.380       .  A
C2475      H2478   1.082       .  S
C2476      C2477   1.401       .  A
C2476      C2783   1.496       .  S
C2477      H2479   1.081       .  S
Cu2480     N2483   2.044       .  S
Cu2481     N2491   2.121       .  S
Cu2482     N2484   2.074       .  S
Cu2482     N2490   2.076       .  S
N2483      N2484   1.320       .  A
N2483      C2487   1.341       .  A
N2484      C2485   1.346       .  A
C2485      C2486   1.385       .  A
C2485      H2488   1.082       .  S
C2486      C2487   1.376       .  A
C2486      C2773   1.465       .  S
C2487      H2489   1.082       .  S
N2490      N2491   1.325       .  A
N2490      C2494   1.343       .  A
N2491      C2492   1.355       .  A
C2492      C2493   1.395       .  A
C2492      H2495   1.082       .  S
C2493      C2494   1.383       .  A
C2493      C3103   1.495       .  S
C2494      H2496   1.081       .  S
N2497      N2498   1.321       .  A
N2497      C2501   1.356       .  A
N2497     Cu2505   2.123       .  S
N2498      C2499   1.338       .  A
N2498     Cu2504   2.031       .  S
C2499      C2500   1.371       .  A
C2499      H2502   1.082       .  S
C2500      C2501   1.397       .  A
C2500      C2740   1.478       .  S
C2501      H2503   1.082       .  S
Cu2504     N2507   2.031       .  S
Cu2505     N2515   2.126       .  S
Cu2506     N2508   2.079       .  S
Cu2506     N2514   2.084       .  S
N2507      N2508   1.318       .  A
N2507      C2511   1.336   1_565  A
N2508      C2509   1.350   1_565  A
C2509      C2510   1.390       .  A
C2509      H2512   1.081       .  S
C2510      C2511   1.377       .  A
C2510      C2753   1.472       .  S
C2511      H2513   1.082       .  S
N2514      N2515   1.327       .  A
N2514      C2518   1.345       .  A
N2515      C2516   1.354       .  A
C2516      C2517   1.391       .  A
C2516      H2519   1.082       .  S
C2517      C2518   1.381       .  A
C2517      C3463   1.489       .  S
C2518      H2520   1.082       .  S
N2521      N2522   1.318       .  A
N2521      C2525   1.350       .  A
N2521     Cu2529   2.082       .  S
N2522      C2523   1.336       .  A
N2522     Cu2528   2.038       .  S
C2523      C2524   1.379       .  A
C2523      H2526   1.082       .  S
C2524      C2525   1.392       .  A
C2524      C2763   1.478       .  S
C2525      H2527   1.082       .  S
Cu2528     N2531   2.041       .  S
Cu2529     N2539   2.086       .  S
Cu2530     N2532   2.074       .  S
Cu2530     N2538   2.077       .  S
N2531      N2532   1.319       .  A
N2531      C2535   1.336       .  A
N2532      C2533   1.350       .  A
C2533      C2534   1.387       .  A
C2533      H2536   1.081       .  S
C2534      C2535   1.375       .  A
C2534      C2750   1.465       .  S
C2535      H2537   1.082       .  S
N2538      N2539   1.326       .  A
N2538      C2542   1.343       .  A
N2539      C2540   1.346       .  A
C2540      C2541   1.382       .  A
C2540      H2543   1.082       .  S
C2541      C2542   1.380       .  A
C2541      C4020   1.472       .  S
C2542      H2544   1.082       .  S
N2545      N2546   1.320       .  A
N2545      C2549   1.347       .  A
N2545     Cu2553   2.071       .  S
N2546      C2547   1.339       .  A
N2546     Cu2552   2.046       .  S
C2547      C2548   1.376       .  A
C2547      H2550   1.082       .  S
C2548      C2549   1.386       .  A
C2548      C2720   1.464       .  S
C2549      H2551   1.082       .  S
Cu2552     N2555   2.051       .  S
Cu2553     N2563   2.073       .  S
Cu2554     N2556   2.065       .  S
Cu2554     N2562   2.066       .  S
N2555      N2556   1.321       .  A
N2555      C2559   1.338       .  A
N2556      C2557   1.347       .  A
C2557      C2558   1.383       .  A
C2557      H2560   1.081       .  S
C2558      C2559   1.377       .  A
C2558      C2730   1.465       .  S
C2559      H2561   1.082       .  S
N2562      N2563   1.323       .  A
N2562      C2566   1.342       .  A
N2563      C2564   1.344       .  A
C2564      C2565   1.385       .  A
C2564      H2567   1.082       .  S
C2565      C2566   1.383       .  A
C2565      C4283   1.479       .  S
C2566      H2568   1.080       .  S
N2569      N2570   1.319       .  A
N2569      C2573   1.358       .  A
N2569     Cu2577   2.125       .  S
N2570      C2571   1.336       .  A
N2570     Cu2576   2.027       .  S
C2571      C2572   1.374       .  A
C2571      H2574   1.082       .  S
C2572      C2573   1.401       .  A
C2572      C2743   1.487       .  S
C2573      H2575   1.082       .  S
Cu2576     N2579   2.030       .  S
Cu2577     N2587   2.130       .  S
Cu2578     N2580   2.074       .  S
Cu2578     N2586   2.080       .  S
N2579      N2580   1.317       .  A
N2579      C2583   1.335       .  A
N2580      C2581   1.350       .  A
C2581      C2582   1.388       .  A
C2581      H2584   1.081       .  S
C2582      C2583   1.375       .  A
C2582      C2733   1.466       .  S
C2583      H2585   1.082       .  S
N2586      N2587   1.328       .  A
N2586      C2590   1.344       .  A
N2587      C2588   1.354       .  A
C2588      C2589   1.393       .  A
C2588      H2591   1.081       .  S
C2589      C2590   1.380       .  A
C2589      C3700   1.490       .  S
C2590      H2592   1.082       .  S
N2593      N2594   1.322       .  A
N2593      C2597   1.348       .  A
N2593     Cu2601   2.075       .  S
N2594      C2595   1.338       .  A
N2594     Cu2600   2.052       .  S
C2595      C2596   1.376       .  A
C2595      H2598   1.082       .  S
C2596      C2597   1.384       .  A
C2596      C2880   1.468       .  S
C2597      H2599   1.082       .  S
Cu2600     N2603   2.050       .  S
Cu2601     N2611   2.076       .  S
Cu2602     N2604   2.066       .  S
Cu2602     N2610   2.068       .  S
N2603      N2604   1.319       .  A
N2603      C2607   1.342       .  A
N2604      C2605   1.344       .  A
C2605      C2606   1.385       .  A
C2605      H2608   1.082       .  S
C2606      C2607   1.380       .  A
C2606      C2710   1.470       .  S
C2607      H2609   1.082       .  S
N2610      N2611   1.322       .  A
N2610      C2614   1.341       .  A
N2611      C2612   1.346       .  A
C2612      C2613   1.388       .  A
C2612      H2615   1.082       .  S
C2613      C2614   1.384       .  A
C2613      C4133   1.482       .  S
C2614      H2616   1.080       .  S
N2617      N2618   1.322       .  A
N2617      C2621   1.357       .  A
N2617     Cu2625   2.122       .  S
N2618      C2619   1.338       .  A
N2618     Cu2624   2.040       .  S
C2619      C2620   1.375       .  A
C2619      H2622   1.082       .  S
C2620      C2621   1.397       .  A
C2620      C2703   1.485       .  S
C2621      H2623   1.081       .  S
Cu2624     N2627   2.041       .  S
Cu2625     N2635   2.125       .  S
Cu2626     N2628   2.076       .  S
Cu2626     N2634   2.079       .  S
N2627      N2628   1.319       .  A
N2627      C2631   1.339       .  A
N2628      C2629   1.348       .  A
C2629      C2630   1.387       .  A
C2629      H2632   1.082       .  S
C2630      C2631   1.377       .  A
C2630      C2713   1.470       .  S
C2631      H2633   1.082       .  S
N2634      N2635   1.326       .  A
N2634      C2638   1.343       .  A
N2635      C2636   1.355       .  A
C2636      C2637   1.396       .  A
C2636      H2639   1.081       .  S
C2637      C2638   1.383       .  A
C2637      C3313   1.497       .  S
C2638      H2640   1.082       .  S
N2641      N2642   1.321       .  A
N2641      C2645   1.354       .  A
N2641     Cu2649   2.116       .  S
N2642      C2643   1.339       .  A
N2642     Cu2648   2.047       .  S
C2643      C2644   1.381       .  A
C2643      H2646   1.082       .  S
C2644      C2645   1.399       .  A
C2644      C2700   1.496       .  S
C2645      H2647   1.080       .  S
Cu2648     N2651   2.049   1_455  S
Cu2649     N2659   2.118       .  S
Cu2650     N2652   2.069       .  S
Cu2650     N2658   2.071       .  S
N2651      N2652   1.320       .  A
N2651      C2655   1.341       .  A
N2652      C2653   1.345       .  A
C2653      C2654   1.386       .  A
C2653      H2656   1.082       .  S
C2654      C2655   1.379       .  A
C2654      C2693   1.471       .  S
C2655      H2657   1.082   1_655  S
N2658      N2659   1.324   1_655  A
N2658      C2662   1.343       .  A
N2659      C2660   1.354       .  A
C2660      C2661   1.393   1_455  A
C2660      H2663   1.082       .  S
C2661      C2662   1.380       .  A
C2661      C3033   1.487       .  S
C2662      H2664   1.082       .  S
N2665      N2666   1.319       .  A
N2665      C2669   1.345       .  A
N2665     Cu2673   2.069       .  S
N2666      C2667   1.339       .  A
N2666     Cu2672   2.043       .  S
C2667      C2668   1.379       .  A
C2667      H2670   1.082       .  S
C2668      C2669   1.388       .  A
C2668      C2723   1.476       .  S
C2669      H2671   1.081       .  S
Cu2672     N2675   2.044       .  S
Cu2673     N2683   2.071       .  S
Cu2674     N2676   2.074       .  S
Cu2674     N2682   2.074       .  S
N2675      N2676   1.320       .  A
N2675      C2679   1.338       .  A
N2676      C2677   1.346       .  A
C2677      C2678   1.389       .  A
C2677      H2680   1.081       .  S
C2678      C2679   1.380       .  A
C2678      C2690   1.477       .  S
C2679      H2681   1.082       .  S
N2682      N2683   1.322       .  A
N2682      C2686   1.342       .  A
N2683      C2684   1.344       .  A
C2684      C2685   1.387       .  A
C2684      H2687   1.080       .  S
C2685      C2686   1.386       .  A
C2685      C4103   1.484       .  S
C2686      H2688   1.081       .  S
C2689      C2690   1.406       .  A
C2689      C2694   1.395       .  A
C2689      H2696   1.083       .  S
C2690      C2691   1.412       .  A
C2691      C2692   1.398       .  A
C2691     Br2698   1.920       .  S
C2692      C2693   1.403       .  A
C2692      H2697   1.084       .  S
C2693      C2694   1.405       .  A
C2694     Br2695   1.918       .  S
C2699      C2700   1.413       .  A
C2699      C2704   1.403       .  A
C2699      H2706   1.082       .  S
C2700      C2701   1.412       .  A
C2701      C2702   1.403       .  A
C2701     Br2708   1.918       .  S
C2702      C2703   1.407       .  A
C2702      H2707   1.083       .  S
C2703      C2704   1.405       .  A
C2704     Br2705   1.918       .  S
C2709      C2710   1.401       .  A
C2709      C2714   1.396       .  A
C2709      H2716   1.084       .  S
C2710      C2711   1.408       .  A
C2711      C2712   1.399       .  A
C2711     Br2718   1.918       .  S
C2712      C2713   1.401       .  A
C2712      H2717   1.083       .  S
C2713      C2714   1.410       .  A
C2714     Br2715   1.921       .  S
C2719      C2720   1.399       .  A
C2719      C2724   1.398       .  A
C2719      H2726   1.083       .  S
C2720      C2721   1.406       .  A
C2721      C2722   1.395       .  A
C2721     Br2728   1.920       .  S
C2722      C2723   1.404       .  A
C2722      H2727   1.084       .  S
C2723      C2724   1.413       .  A
C2724     Br2725   1.919       .  S
C2729      C2730   1.399       .  A
C2729      C2734   1.397       .  A
C2729      H2736   1.084       .  S
C2730      C2731   1.409       .  A
C2731      C2732   1.397       .  A
C2731     Br2738   1.919       .  S
C2732      C2733   1.399       .  A
C2732      H2737   1.083       .  S
C2733      C2734   1.410       .  A
C2734     Br2735   1.920       .  S
C2739      C2740   1.407       .  A
C2739      C2744   1.407       .  A
C2739      H2746   1.084       .  S
C2740      C2741   1.404       .  A
C2741      C2742   1.398       .  A
C2741     Br2748   1.918       .  S
C2742      C2743   1.408       .  A
C2742      H2747   1.083       .  S
C2743      C2744   1.411       .  A
C2744     Br2745   1.918       .  S
C2749      C2750   1.398       .  A
C2749      C2754   1.397       .  A
C2749      H2756   1.084       .  S
C2750      C2751   1.408       .  A
C2751      C2752   1.398       .  A
C2751     Br2758   1.918       .  S
C2752      C2753   1.400       .  A
C2752      H2757   1.083       .  S
C2753      C2754   1.413       .  A
C2754     Br2755   1.921   1_545  S
C2759      C2760   1.403       .  A
C2759      C2764   1.402       .  A
C2759      H2766   1.083       .  S
C2760      C2761   1.401       .  A
C2761      C2762   1.393       .  A
C2761     Br2768   1.919       .  S
C2762      C2763   1.407       .  A
C2762      H2767   1.083       .  S
C2763      C2764   1.410       .  A
C2764     Br2765   1.918       .  S
C2769      C2770   1.401       .  A
C2769      C2774   1.398       .  A
C2769      H2776   1.084       .  S
C2770      C2771   1.406       .  A
C2771      C2772   1.397       .  A
C2771     Br2778   1.917       .  S
C2772      C2773   1.400       .  A
C2772      H2777   1.083       .  S
C2773      C2774   1.408       .  A
C2774     Br2775   1.919       .  S
C2779      C2780   1.406       .  A
C2779      C2784   1.412       .  A
C2779      H2786   1.083       .  S
C2780      C2781   1.408       .  A
C2781      C2782   1.395       .  A
C2781     Br2788   1.922       .  S
C2782      C2783   1.407       .  A
C2782      H2787   1.083       .  S
C2783      C2784   1.416       .  A
C2784     Br2785   1.916       .  S
C2789      C2790   1.403       .  A
C2789      C2794   1.396       .  A
C2789      H2796   1.083       .  S
C2790      C2791   1.412       .  A
C2791      C2792   1.398       .  A
C2791     Br2798   1.920       .  S
C2792      C2793   1.400       .  A
C2792      H2797   1.083       .  S
C2793      C2794   1.411       .  A
C2794     Br2795   1.921       .  S
C2799      C2800   1.406       .  A
C2799      C2804   1.405       .  A
C2799      H2806   1.083       .  S
C2800      C2801   1.409       .  A
C2801      C2802   1.388       .  A
C2801     Br2808   1.923       .  S
C2802      C2803   1.403       .  A
C2802      H2807   1.083       .  S
C2803      C2804   1.412       .  A
C2804     Br2805   1.918       .  S
C2809      C2810   1.402       .  A
C2809      C2814   1.397       .  A
C2809      H2816   1.084       .  S
C2810      C2811   1.409       .  A
C2811      C2812   1.398       .  A
C2811     Br2818   1.918       .  S
C2812      C2813   1.399       .  A
C2812      H2817   1.083       .  S
C2813      C2814   1.409       .  A
C2814     Br2815   1.919       .  S
C2819      C2820   1.406       .  A
C2819      C2824   1.395       .  A
C2819      H2826   1.083       .  S
C2820      C2821   1.416       .  A
C2821      C2822   1.411       .  A
C2821     Br2828   1.916       .  S
C2822      C2823   1.406       .  A
C2822      H2827   1.083       .  S
C2823      C2824   1.409       .  A
C2824     Br2825   1.922       .  S
C2829      C2830   1.403       .  A
C2829      C2834   1.398       .  A
C2829      H2836   1.084       .  S
C2830      C2831   1.410       .  A
C2831      C2832   1.398       .  A
C2831     Br2838   1.919       .  S
C2832      C2833   1.399       .  A
C2832      H2837   1.083       .  S
C2833      C2834   1.409       .  A
C2834     Br2835   1.920       .  S
C2839      C2840   1.399       .  A
C2839      C2844   1.396       .  A
C2839      H2846   1.083       .  S
C2840      C2841   1.410       .  A
C2841      C2842   1.396       .  A
C2841     Br2848   1.920       .  S
C2842      C2843   1.400       .  A
C2842      H2847   1.083       .  S
C2843      C2844   1.409       .  A
C2844     Br2845   1.919       .  S
C2849      C2850   1.411       .  A
C2849      C2854   1.395       .  A
C2849      H2856   1.081       .  S
C2850      C2851   1.417       .  A
C2851      C2852   1.400       .  A
C2851     Br2858   1.919       .  S
C2852      C2853   1.400       .  A
C2852      H2857   1.084       .  S
C2853      C2854   1.400       .  A
C2854     Br2855   1.919       .  S
C2859      C2860   1.414       .  A
C2859      C2864   1.404       .  A
C2859      H2866   1.082       .  S
C2860      C2861   1.416       .  A
C2861      C2862   1.403       .  A
C2861     Br2868   1.918       .  S
C2862      C2863   1.405       .  A
C2862      H2867   1.084       .  S
C2863      C2864   1.406       .  A
C2864     Br2865   1.918       .  S
C2869      C2870   1.401       .  A
C2869      C2874   1.396       .  A
C2869      H2876   1.084       .  S
C2870      C2871   1.409       .  A
C2871      C2872   1.399       .  A
C2871     Br2878   1.918       .  S
C2872      C2873   1.400       .  A
C2872      H2877   1.083       .  S
C2873      C2874   1.409       .  A
C2874     Br2875   1.921       .  S
C2879      C2880   1.399       .  A
C2879      C2884   1.397       .  A
C2879      H2886   1.083       .  S
C2880      C2881   1.411       .  A
C2881      C2882   1.396       .  A
C2881     Br2888   1.920       .  S
C2882      C2883   1.399       .  A
C2882      H2887   1.083       .  S
C2883      C2884   1.410       .  A
C2884     Br2885   1.920       .  S
C2889      C2890   1.401       .  A
C2889      C2894   1.396       .  A
C2889      H2896   1.084       .  S
C2890      C2891   1.406       .  A
C2891      C2892   1.399       .  A
C2891     Br2898   1.917       .  S
C2892      C2893   1.401       .  A
C2892      H2897   1.083       .  S
C2893      C2894   1.409       .  A
C2894     Br2895   1.921       .  S
C2899      C2900   1.409       .  A
C2899      C2904   1.395       .  A
C2899      H2906   1.082       .  S
C2900      C2901   1.416       .  A
C2901      C2902   1.399       .  A
C2901     Br2908   1.918       .  S
C2902      C2903   1.402       .  A
C2902      H2907   1.084       .  S
C2903      C2904   1.406       .  A
C2904     Br2905   1.920       .  S
C2909      C2910   1.401       .  A
C2909      C2914   1.407       .  A
C2909      H2916   1.084       .  S
C2910      C2911   1.399       .  A
C2911      C2912   1.398       .  A
C2911     Br2918   1.920       .  S
C2912      C2913   1.418       .  A
C2912      H2917   1.079       .  S
C2913      C2914   1.424       .  A
C2914     Br2915   1.916       .  S
C2919      C2920   1.405       .  A
C2919      C2924   1.398       .  A
C2919      H2926   1.084       .  S
C2920      C2921   1.405       .  A
C2921      C2922   1.396       .  A
C2921     Br2928   1.918       .  S
C2922      C2923   1.406       .  A
C2922      H2927   1.083       .  S
C2923      C2924   1.411       .  A
C2924     Br2925   1.920       .  S
C2929      C2930   1.399       .  A
C2929      C2934   1.397       .  A
C2929      H2936   1.084       .  S
C2930      C2931   1.408       .  A
C2931      C2932   1.397       .  A
C2931     Br2938   1.919       .  S
C2932      C2933   1.400       .  A
C2932      H2937   1.083       .  S
C2933      C2934   1.410       .  A
C2934     Br2935   1.920       .  S
C2939      C2940   1.399       .  A
C2939      C2944   1.402       .  A
C2939      H2946   1.084       .  S
C2940      C2941   1.413       .  A
C2941      C2942   1.405       .  A
C2941     Br2948   1.918       .  S
C2942      C2943   1.403       .  A
C2942      H2947   1.083       .  S
C2943      C2944   1.418       .  A
C2944     Br2945   1.922       .  S
C2949      C2950   1.403       .  A
C2949      C2954   1.396       .  A
C2949      H2956   1.082       .  S
C2950      C2951   1.413       .  A
C2951      C2952   1.398       .  A
C2951     Br2958   1.920       .  S
C2952      C2953   1.401       .  A
C2952      H2957   1.083       .  S
C2953      C2954   1.412       .  A
C2954     Br2955   1.922       .  S
C2959      C2960   1.399       .  A
C2959      C2964   1.398       .  A
C2959      H2966   1.083       .  S
C2960      C2961   1.411       .  A
C2961      C2962   1.397       .  A
C2961     Br2968   1.921       .  S
C2962      C2963   1.403       .  A
C2962      H2967   1.083       .  S
C2963      C2964   1.412       .  A
C2964     Br2965   1.919       .  S
C2969      C2970   1.404       .  A
C2969      C2974   1.405   1_655  A
C2969      H2976   1.083       .  S
C2970      C2971   1.414       .  A
C2971      C2972   1.404       .  A
C2971     Br2978   1.919       .  S
C2972      C2973   1.403   1_655  A
C2972      H2977   1.083   1_655  S
C2973      C2974   1.413       .  A
C2974     Br2975   1.919       .  S
C2979      C2980   1.408       .  A
C2979      C2984   1.410       .  A
C2979      H2986   1.083       .  S
C2980      C2981   1.413       .  A
C2981      C2982   1.394       .  A
C2981     Br2988   1.923       .  S
C2982      C2983   1.402       .  A
C2982      H2987   1.084       .  S
C2983      C2984   1.412       .  A
C2984     Br2985   1.916       .  S
C2989      C2990   1.400       .  A
C2989      C2994   1.398       .  A
C2989      H2996   1.084       .  S
C2990      C2991   1.405       .  A
C2991      C2992   1.397       .  A
C2991     Br2998   1.919       .  S
C2992      C2993   1.406       .  A
C2992      H2997   1.082       .  S
C2993      C2994   1.416       .  A
C2994     Br2995   1.921       .  S
C2999      C3000   1.402       .  A
C2999      C3004   1.397       .  A
C2999      H3006   1.084       .  S
C3000      C3001   1.410       .  A
C3001      C3002   1.397       .  A
C3001     Br3008   1.919       .  S
C3002      C3003   1.399       .  A
C3002      H3007   1.083       .  S
C3003      C3004   1.409       .  A
C3004     Br3005   1.920       .  S
C3009      C3010   1.404       .  A
C3009      C3014   1.386       .  A
C3009      H3016   1.083       .  S
C3010      C3011   1.413       .  A
C3011      C3012   1.404       .  A
C3011     Br3018   1.918       .  S
C3012      C3013   1.405       .  A
C3012      H3017   1.083       .  S
C3013      C3014   1.408       .  A
C3014     Br3015   1.924       .  S
C3019      C3020   1.399       .  A
C3019      C3024   1.397       .  A
C3019      H3026   1.083       .  S
C3020      C3021   1.409       .  A
C3021      C3022   1.396       .  A
C3021     Br3028   1.921       .  S
C3022      C3023   1.403       .  A
C3022      H3027   1.083       .  S
C3023      C3024   1.411       .  A
C3024     Br3025   1.919       .  S
C3029      C3030   1.407       .  A
C3029      C3034   1.404   1_655  A
C3029      H3036   1.083   1_655  S
C3030      C3031   1.410       .  A
C3031      C3032   1.404       .  A
C3031     Br3038   1.918       .  S
C3032      C3033   1.406       .  A
C3032      H3037   1.083       .  S
C3033      C3034   1.410   1_655  A
C3034     Br3035   1.918       .  S
C3039      C3040   1.412       .  A
C3039      C3044   1.400       .  A
C3039      H3046   1.082       .  S
C3040      C3041   1.413       .  A
C3041      C3042   1.406       .  A
C3041     Br3048   1.918       .  S
C3042      C3043   1.408       .  A
C3042      H3047   1.083       .  S
C3043      C3044   1.405       .  A
C3044     Br3045   1.919       .  S
C3049      C3050   1.399       .  A
C3049      C3054   1.397       .  A
C3049      H3056   1.083       .  S
C3050      C3051   1.409       .  A
C3051      C3052   1.397       .  A
C3051     Br3058   1.919   1_455  S
C3052      C3053   1.399       .  A
C3052      H3057   1.084       .  S
C3053      C3054   1.409       .  A
C3054     Br3055   1.919       .  S
C3059      C3060   1.401       .  A
C3059      C3064   1.399       .  A
C3059      H3066   1.083       .  S
C3060      C3061   1.413       .  A
C3061      C3062   1.396       .  A
C3061     Br3068   1.922       .  S
C3062      C3063   1.400       .  A
C3062      H3067   1.084       .  S
C3063      C3064   1.410       .  A
C3064     Br3065   1.918       .  S
C3069      C3070   1.406       .  A
C3069      C3074   1.394       .  A
C3069      H3076   1.084       .  S
C3070      C3071   1.408       .  A
C3071      C3072   1.398       .  A
C3071     Br3078   1.918       .  S
C3072      C3073   1.405       .  A
C3072      H3077   1.084       .  S
C3073      C3074   1.406       .  A
C3074     Br3075   1.920       .  S
C3079      C3080   1.398       .  A
C3079      C3084   1.400       .  A
C3079      H3086   1.084       .  S
C3080      C3081   1.412       .  A
C3081      C3082   1.405       .  A
C3081     Br3088   1.918       .  S
C3082      C3083   1.403       .  A
C3082      H3087   1.083       .  S
C3083      C3084   1.416       .  A
C3084     Br3085   1.921       .  S
C3089      C3090   1.407       .  A
C3089      C3094   1.397       .  A
C3089      H3096   1.083       .  S
C3090      C3091   1.412       .  A
C3091      C3092   1.395       .  A
C3091     Br3098   1.921       .  S
C3092      C3093   1.402       .  A
C3092      H3097   1.084       .  S
C3093      C3094   1.404       .  A
C3094     Br3095   1.918       .  S
C3099      C3100   1.405       .  A
C3099      C3104   1.399       .  A
C3099      H3106   1.083       .  S
C3100      C3101   1.413       .  A
C3101      C3102   1.410       .  A
C3101     Br3108   1.916       .  S
C3102      C3103   1.408       .  A
C3102      H3107   1.083       .  S
C3103      C3104   1.415       .  A
C3104     Br3105   1.922       .  S
C3109      C3110   1.401       .  A
C3109      C3114   1.400       .  A
C3109      H3116   1.083       .  S
C3110      C3111   1.411       .  A
C3111      C3112   1.395       .  A
C3111     Br3118   1.921       .  S
C3112      C3113   1.397       .  A
C3112      H3117   1.083       .  S
C3113      C3114   1.408       .  A
C3114     Br3115   1.918       .  S
C3119      C3120   1.400       .  A
C3119      C3124   1.402       .  A
C3119      H3126   1.083       .  S
C3120      C3121   1.405       .  A
C3121      C3122   1.392       .  A
C3121     Br3128   1.921       .  S
C3122      C3123   1.406       .  A
C3122      H3127   1.083       .  S
C3123      C3124   1.417       .  A
C3124     Br3125   1.919       .  S
C3129      C3130   1.407       .  A
C3129      C3134   1.412       .  A
C3129      H3136   1.083       .  S
C3130      C3131   1.409       .  A
C3131      C3132   1.395       .  A
C3131     Br3138   1.922       .  S
C3132      C3133   1.407       .  A
C3132      H3137   1.083       .  S
C3133      C3134   1.416       .  A
C3134     Br3135   1.916       .  S
C3139      C3140   1.400       .  A
C3139      C3144   1.399       .  A
C3139      H3146   1.083       .  S
C3140      C3141   1.410       .  A
C3141      C3142   1.394       .  A
C3141     Br3148   1.922       .  S
C3142      C3143   1.402       .  A
C3142      H3147   1.083       .  S
C3143      C3144   1.411       .  A
C3144     Br3145   1.918       .  S
C3149      C3150   1.404       .  A
C3149      C3154   1.406       .  A
C3149      H3156   1.083       .  S
C3150      C3151   1.414       .  A
C3151      C3152   1.405       .  A
C3151     Br3158   1.919       .  S
C3152      C3153   1.404       .  A
C3152      H3157   1.083       .  S
C3153      C3154   1.413       .  A
C3154     Br3155   1.919       .  S
C3159      C3160   1.403       .  A
C3159      C3164   1.397       .  A
C3159      H3166   1.084       .  S
C3160      C3161   1.403       .  A
C3161      C3162   1.395       .  A
C3161     Br3168   1.918       .  S
C3162      C3163   1.408       .  A
C3162      H3167   1.082       .  S
C3163      C3164   1.413       .  A
C3164     Br3165   1.920       .  S
C3169      C3170   1.403       .  A
C3169      C3174   1.398       .  A
C3169      H3176   1.082       .  S
C3170      C3171   1.415       .  A
C3171      C3172   1.397       .  A
C3171     Br3178   1.920       .  S
C3172      C3173   1.399       .  A
C3172      H3177   1.083       .  S
C3173      C3174   1.412       .  A
C3174     Br3175   1.921       .  S
C3179      C3180   1.399       .  A
C3179      C3184   1.397       .  A
C3179      H3186   1.084       .  S
C3180      C3181   1.406       .  A
C3181      C3182   1.398       .  A
C3181     Br3188   1.918       .  S
C3182      C3183   1.406       .  A
C3182      H3187   1.082       .  S
C3183      C3184   1.417       .  A
C3184     Br3185   1.922       .  S
C3189      C3190   1.412       .  A
C3189      C3194   1.404       .  A
C3189      H3196   1.083       .  S
C3190      C3191   1.411       .  A
C3191      C3192   1.403       .  A
C3191     Br3198   1.918       .  S
C3192      C3193   1.409       .  A
C3192      H3197   1.083       .  S
C3193      C3194   1.407       .  A
C3194     Br3195   1.918       .  S
C3199      C3200   1.408       .  A
C3199      C3204   1.398       .  A
C3199      H3206   1.083       .  S
C3200      C3201   1.415       .  A
C3201      C3202   1.397       .  A
C3201     Br3208   1.920       .  S
C3202      C3203   1.404       .  A
C3202      H3207   1.083       .  S
C3203      C3204   1.409       .  A
C3204     Br3205   1.919       .  S
C3209      C3210   1.406       .  A
C3209      C3214   1.398       .  A
C3209      H3216   1.083       .  S
C3210      C3211   1.411       .  A
C3211      C3212   1.397       .  A
C3211     Br3218   1.920       .  S
C3212      C3213   1.404       .  A
C3212      H3217   1.084       .  S
C3213      C3214   1.407       .  A
C3214     Br3215   1.919       .  S
C3219      C3220   1.406   1_554  A
C3219      C3224   1.405       .  A
C3219      H3226   1.083       .  S
C3220      C3221   1.410       .  A
C3221      C3222   1.404       .  A
C3221     Br3228   1.918       .  S
C3222      C3223   1.407       .  A
C3222      H3227   1.083       .  S
C3223      C3224   1.413   1_556  A
C3224     Br3225   1.918       .  S
C3229      C3230   1.410       .  A
C3229      C3234   1.403       .  A
C3229      H3236   1.083       .  S
C3230      C3231   1.409       .  A
C3231      C3232   1.403       .  A
C3231     Br3238   1.918       .  S
C3232      C3233   1.409       .  A
C3232      H3237   1.083       .  S
C3233      C3234   1.407       .  A
C3234     Br3235   1.918       .  S
C3239      C3240   1.400       .  A
C3239      C3244   1.398       .  A
C3239      H3246   1.083       .  S
C3240      C3241   1.408       .  A
C3241      C3242   1.398       .  A
C3241     Br3248   1.919       .  S
C3242      C3243   1.401       .  A
C3242      H3247   1.084       .  S
C3243      C3244   1.406       .  A
C3244     Br3245   1.917       .  S
C3249      C3250   1.403       .  A
C3249      C3254   1.404       .  A
C3249      H3256   1.083       .  S
C3250      C3251   1.415       .  A
C3251      C3252   1.406       .  A
C3251     Br3258   1.919       .  S
C3252      C3253   1.403       .  A
C3252      H3257   1.083       .  S
C3253      C3254   1.413       .  A
C3254     Br3255   1.919       .  S
C3259      C3260   1.408       .  A
C3259      C3264   1.398       .  A
C3259      H3266   1.083       .  S
C3260      C3261   1.413       .  A
C3261      C3262   1.397       .  A
C3261     Br3268   1.920       .  S
C3262      C3263   1.405       .  A
C3262      H3267   1.083       .  S
C3263      C3264   1.408       .  A
C3264     Br3265   1.919       .  S
C3269      C3270   1.401       .  A
C3269      C3274   1.404       .  A
C3269      H3276   1.084       .  S
C3270      C3271   1.412       .  A
C3271      C3272   1.402       .  A
C3271     Br3278   1.919       .  S
C3272      C3273   1.404       .  A
C3272      H3277   1.083       .  S
C3273      C3274   1.419       .  A
C3274     Br3275   1.921       .  S
C3279      C3280   1.404       .  A
C3279      C3284   1.396       .  A
C3279      H3286   1.084       .  S
C3280      C3281   1.405       .  A
C3281      C3282   1.398       .  A
C3281     Br3288   1.917       .  S
C3282      C3283   1.406       .  A
C3282      H3287   1.083       .  S
C3283      C3284   1.411       .  A
C3284     Br3285   1.921       .  S
C3289      C3290   1.406       .  A
C3289      C3294   1.397       .  A
C3289      H3296   1.083       .  S
C3290      C3291   1.408       .  A
C3291      C3292   1.397       .  A
C3291     Br3298   1.919       .  S
C3292      C3293   1.405       .  A
C3292      H3297   1.084       .  S
C3293      C3294   1.406       .  A
C3294     Br3295   1.919       .  S
C3299      C3300   1.405       .  A
C3299      C3304   1.405       .  A
C3299      H3306   1.083       .  S
C3300      C3301   1.407       .  A
C3301      C3302   1.387       .  A
C3301     Br3308   1.924       .  S
C3302      C3303   1.403       .  A
C3302      H3307   1.083       .  S
C3303      C3304   1.413       .  A
C3304     Br3305   1.917       .  S
C3309      C3310   1.406       .  A
C3309      C3314   1.410   1_545  A
C3309      H3316   1.083       .  S
C3310      C3311   1.413   1_545  A
C3311      C3312   1.400       .  A
C3311     Br3318   1.922   1_565  S
C3312      C3313   1.406       .  A
C3312      H3317   1.083       .  S
C3313      C3314   1.415       .  A
C3314     Br3315   1.917       .  S
C3319      C3320   1.399       .  A
C3319      C3324   1.403       .  A
C3319      H3326   1.084       .  S
C3320      C3321   1.409       .  A
C3321      C3322   1.404       .  A
C3321     Br3328   1.918       .  S
C3322      C3323   1.407       .  A
C3322      H3327   1.082       .  S
C3323      C3324   1.421       .  A
C3324     Br3325   1.922       .  S
C3329      C3330   1.402       .  A
C3329      C3334   1.396       .  A
C3329      H3336   1.083       .  S
C3330      C3331   1.410       .  A
C3331      C3332   1.397       .  A
C3331     Br3338   1.918       .  S
C3332      C3333   1.399       .  A
C3332      H3337   1.083       .  S
C3333      C3334   1.409       .  A
C3334     Br3335   1.921       .  S
C3339      C3340   1.408       .  A
C3339      C3344   1.403       .  A
C3339      H3346   1.083       .  S
C3340      C3341   1.411       .  A
C3341      C3342   1.405       .  A
C3341     Br3348   1.918       .  S
C3342      C3343   1.406       .  A
C3342      H3347   1.083       .  S
C3343      C3344   1.407       .  A
C3344     Br3345   1.918       .  S
C3349      C3350   1.400       .  A
C3349      C3354   1.397       .  A
C3349      H3356   1.083       .  S
C3350      C3351   1.409       .  A
C3351      C3352   1.396       .  A
C3351     Br3358   1.919       .  S
C3352      C3353   1.399       .  A
C3352      H3357   1.084       .  S
C3353      C3354   1.408       .  A
C3354     Br3355   1.919       .  S
C3359      C3360   1.407       .  A
C3359      C3364   1.412       .  A
C3359      H3366   1.083       .  S
C3360      C3361   1.412       .  A
C3361      C3362   1.398       .  A
C3361     Br3368   1.922       .  S
C3362      C3363   1.407       .  A
C3362      H3367   1.082       .  S
C3363      C3364   1.417       .  A
C3364     Br3365   1.916       .  S
C3369      C3370   1.412       .  A
C3369      C3374   1.402       .  A
C3369      H3376   1.083       .  S
C3370      C3371   1.415       .  A
C3371      C3372   1.405       .  A
C3371     Br3378   1.917       .  S
C3372      C3373   1.406       .  A
C3372      H3377   1.083       .  S
C3373      C3374   1.408       .  A
C3374     Br3375   1.919       .  S
C3379      C3380   1.404       .  A
C3379      C3384   1.388       .  A
C3379      H3386   1.084       .  S
C3380      C3381   1.409       .  A
C3381      C3382   1.405       .  A
C3381     Br3388   1.916       .  S
C3382      C3383   1.405       .  A
C3382      H3387   1.083       .  S
C3383      C3384   1.405       .  A
C3384     Br3385   1.923       .  S
C3389      C3390   1.404       .  A
C3389      C3394   1.398       .  A
C3389      H3396   1.085       .  S
C3390      C3391   1.406       .  A
C3391      C3392   1.397       .  A
C3391     Br3398   1.919       .  S
C3392      C3393   1.414       .  A
C3392      H3397   1.082       .  S
C3393      C3394   1.420       .  A
C3394     Br3395   1.919       .  S
C3399      C3400   1.407       .  A
C3399      C3404   1.406       .  A
C3399      H3406   1.083       .  S
C3400      C3401   1.411       .  A
C3401      C3402   1.405       .  A
C3401     Br3408   1.918       .  S
C3402      C3403   1.407       .  A
C3402      H3407   1.083       .  S
C3403      C3404   1.412       .  A
C3404     Br3405   1.918       .  S
C3409      C3410   1.405       .  A
C3409      C3414   1.396       .  A
C3409      H3416   1.084       .  S
C3410      C3411   1.405       .  A
C3411      C3412   1.397       .  A
C3411     Br3418   1.918       .  S
C3412      C3413   1.405       .  A
C3412      H3417   1.083       .  S
C3413      C3414   1.406       .  A
C3414     Br3415   1.919       .  S
C3419      C3420   1.404       .  A
C3419      C3424   1.397       .  A
C3419      H3426   1.084       .  S
C3420      C3421   1.406       .  A
C3421      C3422   1.398       .  A
C3421     Br3428   1.918       .  S
C3422      C3423   1.406       .  A
C3422      H3427   1.083       .  S
C3423      C3424   1.411       .  A
C3424     Br3425   1.920       .  S
C3429      C3430   1.398       .  A
C3429      C3434   1.397       .  A
C3429      H3436   1.083       .  S
C3430      C3431   1.410       .  A
C3431      C3432   1.397       .  A
C3431     Br3438   1.921       .  S
C3432      C3433   1.402       .  A
C3432      H3437   1.083       .  S
C3433      C3434   1.412       .  A
C3434     Br3435   1.920       .  S
C3439      C3440   1.407       .  A
C3439      C3444   1.412       .  A
C3439      H3446   1.083       .  S
C3440      C3441   1.409       .  A
C3441      C3442   1.395       .  A
C3441     Br3448   1.922       .  S
C3442      C3443   1.406       .  A
C3442      H3447   1.083       .  S
C3443      C3444   1.415       .  A
C3444     Br3445   1.916       .  S
C3449      C3450   1.403       .  A
C3449      C3454   1.393       .  A
C3449      H3456   1.083       .  S
C3450      C3451   1.407       .  A
C3451      C3452   1.402       .  A
C3451     Br3458   1.916       .  S
C3452      C3453   1.403       .  A
C3452      H3457   1.083       .  S
C3453      C3454   1.406       .  A
C3454     Br3455   1.921       .  S
C3459      C3460   1.405   1_545  A
C3459      C3464   1.406       .  A
C3459      H3466   1.083       .  S
C3460      C3461   1.416       .  A
C3461      C3462   1.405       .  A
C3461     Br3468   1.919       .  S
C3462      C3463   1.402       .  A
C3462      H3467   1.083       .  S
C3463      C3464   1.412   1_565  A
C3464     Br3465   1.918       .  S
C3469      C3470   1.406       .  A
C3469      C3474   1.387       .  A
C3469      H3476   1.082       .  S
C3470      C3471   1.417       .  A
C3471      C3472   1.406       .  A
C3471     Br3478   1.918       .  S
C3472      C3473   1.403       .  A
C3472      H3477   1.083       .  S
C3473      C3474   1.404       .  A
C3474     Br3475   1.923       .  S
C3479      C3480   1.406       .  A
C3479      C3484   1.397       .  A
C3479      H3486   1.083       .  S
C3480      C3481   1.411       .  A
C3481      C3482   1.397       .  A
C3481     Br3488   1.920       .  S
C3482      C3483   1.404       .  A
C3482      H3487   1.084       .  S
C3483      C3484   1.405       .  A
C3484     Br3485   1.918       .  S
C3489      C3490   1.403       .  A
C3489      C3494   1.405   1_556  A
C3489      H3496   1.083       .  S
C3490      C3491   1.414       .  A
C3491      C3492   1.405       .  A
C3491     Br3498   1.919       .  S
C3492      C3493   1.403   1_556  A
C3492      H3497   1.083   1_556  S
C3493      C3494   1.413       .  A
C3494     Br3495   1.918       .  S
C3499      C3500   1.401       .  A
C3499      C3504   1.404       .  A
C3499      H3506   1.084       .  S
C3500      C3501   1.411       .  A
C3501      C3502   1.404       .  A
C3501     Br3508   1.918       .  S
C3502      C3503   1.405       .  A
C3502      H3507   1.083       .  S
C3503      C3504   1.419       .  A
C3504     Br3505   1.921       .  S
C3509      C3510   1.402       .  A
C3509      C3514   1.398       .  A
C3509      H3516   1.084       .  S
C3510      C3511   1.412       .  A
C3511      C3512   1.395       .  A
C3511     Br3518   1.920       .  S
C3512      C3513   1.398       .  A
C3512      H3517   1.083       .  S
C3513      C3514   1.411       .  A
C3514     Br3515   1.921       .  S
C3519      C3520   1.399       .  A
C3519      C3524   1.398       .  A
C3519      H3526   1.084       .  S
C3520      C3521   1.409       .  A
C3521      C3522   1.397       .  A
C3521     Br3528   1.919       .  S
C3522      C3523   1.400       .  A
C3522      H3527   1.083       .  S
C3523      C3524   1.411       .  A
C3524     Br3525   1.920       .  S
C3529      C3530   1.404       .  A
C3529      C3534   1.406   1_556  A
C3529      H3536   1.083       .  S
C3530      C3531   1.415       .  A
C3531      C3532   1.405       .  A
C3531     Br3538   1.919       .  S
C3532      C3533   1.404   1_556  A
C3532      H3537   1.083   1_556  S
C3533      C3534   1.415       .  A
C3534     Br3535   1.919       .  S
C3539      C3540   1.402       .  A
C3539      C3544   1.396       .  A
C3539      H3546   1.084       .  S
C3540      C3541   1.411       .  A
C3541      C3542   1.398       .  A
C3541     Br3548   1.919       .  S
C3542      C3543   1.400       .  A
C3542      H3547   1.083       .  S
C3543      C3544   1.410       .  A
C3544     Br3545   1.921       .  S
C3549      C3550   1.406       .  A
C3549      C3554   1.398       .  A
C3549      H3556   1.083       .  S
C3550      C3551   1.416       .  A
C3551      C3552   1.411       .  A
C3551     Br3558   1.917       .  S
C3552      C3553   1.406       .  A
C3552      H3557   1.083       .  S
C3553      C3554   1.413       .  A
C3554     Br3555   1.923       .  S
C3559      C3560   1.410       .  A
C3559      C3564   1.400       .  A
C3559      H3566   1.083       .  S
C3560      C3561   1.410       .  A
C3561      C3562   1.406       .  A
C3561     Br3568   1.917       .  S
C3562      C3563   1.407       .  A
C3562      H3567   1.083       .  S
C3563      C3564   1.404       .  A
C3564     Br3565   1.918       .  S
C3569      C3570   1.399       .  A
C3569      C3574   1.397       .  A
C3569      H3576   1.084       .  S
C3570      C3571   1.409       .  A
C3571      C3572   1.397       .  A
C3571     Br3578   1.919       .  S
C3572      C3573   1.400       .  A
C3572      H3577   1.083       .  S
C3573      C3574   1.410       .  A
C3574     Br3575   1.920       .  S
C3579      C3580   1.406       .  A
C3579      C3584   1.410       .  A
C3579      H3586   1.083       .  S
C3580      C3581   1.412       .  A
C3581      C3582   1.399       .  A
C3581     Br3588   1.922       .  S
C3582      C3583   1.407       .  A
C3582      H3587   1.083       .  S
C3583      C3584   1.416       .  A
C3584     Br3585   1.917       .  S
C3589      C3590   1.399       .  A
C3589      C3594   1.398       .  A
C3589      H3596   1.083       .  S
C3590      C3591   1.410       .  A
C3591      C3592   1.396       .  A
C3591     Br3598   1.921       .  S
C3592      C3593   1.403       .  A
C3592      H3597   1.083       .  S
C3593      C3594   1.414       .  A
C3594     Br3595   1.919       .  S
C3599      C3600   1.406       .  A
C3599      C3604   1.396       .  A
C3599      H3606   1.083       .  S
C3600      C3601   1.406       .  A
C3601      C3602   1.397       .  A
C3601     Br3608   1.919       .  S
C3602      C3603   1.405       .  A
C3602      H3607   1.083       .  S
C3603      C3604   1.405       .  A
C3604     Br3605   1.919       .  S
C3609      C3610   1.404       .  A
C3609      C3614   1.405       .  A
C3609      H3616   1.083       .  S
C3610      C3611   1.414   1_655  A
C3611      C3612   1.405       .  A
C3611     Br3618   1.919       .  S
C3612      C3613   1.403   1_455  A
C3612      H3617   1.083       .  S
C3613      C3614   1.414       .  A
C3614     Br3615   1.919       .  S
C3619      C3620   1.405       .  A
C3619      C3624   1.394       .  A
C3619      H3626   1.083       .  S
C3620      C3621   1.415       .  A
C3621      C3622   1.411       .  A
C3621     Br3628   1.916       .  S
C3622      C3623   1.407       .  A
C3622      H3627   1.083       .  S
C3623      C3624   1.410       .  A
C3624     Br3625   1.922       .  S
C3629      C3630   1.407       .  A
C3629      C3634   1.398       .  A
C3629      H3636   1.083   1_455  S
C3630      C3631   1.412       .  A
C3631      C3632   1.396       .  A
C3631     Br3638   1.920       .  S
C3632      C3633   1.404       .  A
C3632      H3637   1.083       .  S
C3633      C3634   1.406       .  A
C3634     Br3635   1.919       .  S
C3639      C3640   1.403       .  A
C3639      C3644   1.406       .  A
C3639      H3646   1.083       .  S
C3640      C3641   1.404       .  A
C3641      C3642   1.388       .  A
C3641     Br3648   1.922       .  S
C3642      C3643   1.405       .  A
C3642      H3647   1.082       .  S
C3643      C3644   1.417       .  A
C3644     Br3645   1.918       .  S
C3649      C3650   1.408       .  A
C3649      C3654   1.406       .  A
C3649      H3656   1.083       .  S
C3650      C3651   1.411       .  A
C3651      C3652   1.405       .  A
C3651     Br3658   1.918       .  S
C3652      C3653   1.407       .  A
C3652      H3657   1.083       .  S
C3653      C3654   1.411       .  A
C3654     Br3655   1.918       .  S
C3659      C3660   1.406       .  A
C3659      C3664   1.403       .  A
C3659      H3666   1.083       .  S
C3660      C3661   1.412       .  A
C3661      C3662   1.393       .  A
C3661     Br3668   1.922       .  S
C3662      C3663   1.399       .  A
C3662      H3667   1.084       .  S
C3663      C3664   1.405       .  A
C3664     Br3665   1.916       .  S
C3669      C3670   1.404       .  A
C3669      C3674   1.406   1_655  A
C3669      H3676   1.083       .  S
C3670      C3671   1.414       .  A
C3671      C3672   1.405   1_655  A
C3671     Br3678   1.919       .  S
C3672      C3673   1.404       .  A
C3672      H3677   1.083       .  S
C3673      C3674   1.415       .  A
C3674     Br3675   1.919       .  S
C3679      C3680   1.399       .  A
C3679      C3684   1.401       .  A
C3679      H3686   1.083       .  S
C3680      C3681   1.412       .  A
C3681      C3682   1.405       .  A
C3681     Br3688   1.918       .  S
C3682      C3683   1.403       .  A
C3682      H3687   1.083       .  S
C3683      C3684   1.415       .  A
C3684     Br3685   1.921       .  S
C3689      C3690   1.402       .  A
C3689      C3694   1.396       .  A
C3689      H3696   1.083       .  S
C3690      C3691   1.411       .  A
C3691      C3692   1.398       .  A
C3691     Br3698   1.919       .  S
C3692      C3693   1.400       .  A
C3692      H3697   1.083       .  S
C3693      C3694   1.410       .  A
C3694     Br3695   1.922       .  S
C3699      C3700   1.403       .  A
C3699      C3704   1.404       .  A
C3699      H3706   1.083       .  S
C3700      C3701   1.415       .  A
C3701      C3702   1.406       .  A
C3701     Br3708   1.920       .  S
C3702      C3703   1.403       .  A
C3702      H3707   1.083       .  S
C3703      C3704   1.414       .  A
C3704     Br3705   1.919       .  S
C3709      C3710   1.404       .  A
C3709      C3714   1.396       .  A
C3709      H3716   1.084       .  S
C3710      C3711   1.406       .  A
C3711      C3712   1.398       .  A
C3711     Br3718   1.918       .  S
C3712      C3713   1.405       .  A
C3712      H3717   1.083       .  S
C3713      C3714   1.410       .  A
C3714     Br3715   1.921       .  S
C3719      C3720   1.406       .  A
C3719      C3724   1.405       .  A
C3719      H3726   1.083       .  S
C3720      C3721   1.410       .  A
C3721      C3722   1.387       .  A
C3721     Br3728   1.924       .  S
C3722      C3723   1.402       .  A
C3722      H3727   1.083       .  S
C3723      C3724   1.412       .  A
C3724     Br3725   1.917       .  S
C3729      C3730   1.407       .  A
C3729      C3734   1.398       .  A
C3729      H3736   1.082       .  S
C3730      C3731   1.415       .  A
C3731      C3732   1.412       .  A
C3731     Br3738   1.916       .  S
C3732      C3733   1.408       .  A
C3732      H3737   1.083       .  S
C3733      C3734   1.413       .  A
C3734     Br3735   1.923   1_565  S
C3739      C3740   1.401       .  A
C3739      C3744   1.395       .  A
C3739      H3746   1.084       .  S
C3740      C3741   1.412       .  A
C3741      C3742   1.412       .  A
C3741     Br3748   1.916       .  S
C3742      C3743   1.409       .  A
C3742      H3747   1.083       .  S
C3743      C3744   1.416       .  A
C3744     Br3745   1.923       .  S
C3749      C3750   1.405       .  A
C3749      C3754   1.399       .  A
C3749      H3756   1.083   1_545  S
C3750      C3751   1.411       .  A
C3751      C3752   1.393       .  A
C3751     Br3758   1.921       .  S
C3752      C3753   1.402       .  A
C3752      H3757   1.084       .  S
C3753      C3754   1.405       .  A
C3754     Br3755   1.917   1_545  S
C3759      C3760   1.409       .  A
C3759      C3764   1.395       .  A
C3759      H3766   1.082       .  S
C3760      C3761   1.415       .  A
C3761      C3762   1.399       .  A
C3761     Br3768   1.918       .  S
C3762      C3763   1.400       .  A
C3762      H3767   1.083       .  S
C3763      C3764   1.405       .  A
C3764     Br3765   1.920       .  S
C3769      C3770   1.404       .  A
C3769      C3774   1.405       .  A
C3769      H3776   1.083       .  S
C3770      C3771   1.415       .  A
C3771      C3772   1.405       .  A
C3771     Br3778   1.919       .  S
C3772      C3773   1.404       .  A
C3772      H3777   1.083       .  S
C3773      C3774   1.414       .  A
C3774     Br3775   1.919       .  S
C3779      C3780   1.402       .  A
C3779      C3784   1.396       .  A
C3779      H3786   1.084       .  S
C3780      C3781   1.410       .  A
C3781      C3782   1.398       .  A
C3781     Br3788   1.918       .  S
C3782      C3783   1.399       .  A
C3782      H3787   1.083       .  S
C3783      C3784   1.409       .  A
C3784     Br3785   1.921       .  S
C3789      C3790   1.402       .  A
C3789      C3794   1.404       .  A
C3789      H3796   1.083       .  S
C3790      C3791   1.414   1_556  A
C3791      C3792   1.405       .  A
C3791     Br3798   1.919       .  S
C3792      C3793   1.403   1_554  A
C3792      H3797   1.083       .  S
C3793      C3794   1.414       .  A
C3794     Br3795   1.919       .  S
C3799      C3800   1.401       .  A
C3799      C3804   1.405       .  A
C3799      H3806   1.083       .  S
C3800      C3801   1.410       .  A
C3801      C3802   1.403       .  A
C3801     Br3808   1.918       .  S
C3802      C3803   1.405       .  A
C3802      H3807   1.083       .  S
C3803      C3804   1.418       .  A
C3804     Br3805   1.921       .  S
C3809      C3810   1.405       .  A
C3809      C3814   1.397       .  A
C3809      H3816   1.084   1_554  S
C3810      C3811   1.407       .  A
C3811      C3812   1.397       .  A
C3811     Br3818   1.918       .  S
C3812      C3813   1.403       .  A
C3812      H3817   1.084       .  S
C3813      C3814   1.405       .  A
C3814     Br3815   1.919       .  S
C3819      C3820   1.404       .  A
C3819      C3824   1.405       .  A
C3819      H3826   1.083       .  S
C3820      C3821   1.414       .  A
C3821      C3822   1.405       .  A
C3821     Br3828   1.919       .  S
C3822      C3823   1.404       .  A
C3822      H3827   1.083       .  S
C3823      C3824   1.412       .  A
C3824     Br3825   1.918       .  S
C3829      C3830   1.406       .  A
C3829      C3834   1.397       .  A
C3829      H3836   1.083       .  S
C3830      C3831   1.405       .  A
C3831      C3832   1.397       .  A
C3831     Br3838   1.918       .  S
C3832      C3833   1.406       .  A
C3832      H3837   1.083       .  S
C3833      C3834   1.405       .  A
C3834     Br3835   1.918       .  S
C3839      C3840   1.400       .  A
C3839      C3844   1.399       .  A
C3839      H3846   1.083       .  S
C3840      C3841   1.411       .  A
C3841      C3842   1.396       .  A
C3841     Br3848   1.921       .  S
C3842      C3843   1.403       .  A
C3842      H3847   1.083       .  S
C3843      C3844   1.412       .  A
C3844     Br3845   1.919       .  S
C3849      C3850   1.406       .  A
C3849      C3854   1.411       .  A
C3849      H3856   1.083       .  S
C3850      C3851   1.412       .  A
C3851      C3852   1.398       .  A
C3851     Br3858   1.922       .  S
C3852      C3853   1.407   1_565  A
C3852      H3857   1.082   1_565  S
C3853      C3854   1.417   1_545  A
C3854     Br3855   1.917   1_565  S
C3859      C3860   1.409       .  A
C3859      C3864   1.402       .  A
C3859      H3866   1.083       .  S
C3860      C3861   1.407       .  A
C3861      C3862   1.403       .  A
C3861     Br3868   1.918       .  S
C3862      C3863   1.410       .  A
C3862      H3867   1.083       .  S
C3863      C3864   1.409       .  A
C3864     Br3865   1.918       .  S
C3869      C3870   1.400       .  A
C3869      C3874   1.399       .  A
C3869      H3876   1.084       .  S
C3870      C3871   1.404       .  A
C3871      C3872   1.394       .  A
C3871     Br3878   1.920       .  S
C3872      C3873   1.409       .  A
C3872      H3877   1.082       .  S
C3873      C3874   1.416       .  A
C3874     Br3875   1.918       .  S
C3879      C3880   1.404       .  A
C3879      C3884   1.396       .  A
C3879      H3886   1.083       .  S
C3880      C3881   1.410       .  A
C3881      C3882   1.397       .  A
C3881     Br3888   1.921       .  S
C3882      C3883   1.404       .  A
C3882      H3887   1.084       .  S
C3883      C3884   1.406       .  A
C3884     Br3885   1.918       .  S
C3889      C3890   1.403       .  A
C3889      C3894   1.398       .  A
C3889      H3896   1.083       .  S
C3890      C3891   1.407       .  A
C3891      C3892   1.397       .  A
C3891     Br3898   1.918       .  S
C3892      C3893   1.402       .  A
C3892      H3897   1.083       .  S
C3893      C3894   1.408       .  A
C3894     Br3895   1.919       .  S
C3899      C3900   1.399       .  A
C3899      C3904   1.399       .  A
C3899      H3906   1.084       .  S
C3900      C3901   1.403       .  A
C3901      C3902   1.395       .  A
C3901     Br3908   1.919       .  S
C3902      C3903   1.407       .  A
C3902      H3907   1.083       .  S
C3903      C3904   1.416       .  A
C3904     Br3905   1.919       .  S
C3909      C3910   1.406       .  A
C3909      C3914   1.396       .  A
C3909      H3916   1.083       .  S
C3910      C3911   1.413       .  A
C3911      C3912   1.399       .  A
C3911     Br3918   1.920       .  S
C3912      C3913   1.400       .  A
C3912      H3917   1.084       .  S
C3913      C3914   1.403       .  A
C3914     Br3915   1.918       .  S
C3919      C3920   1.401       .  A
C3919      C3924   1.400       .  A
C3919      H3926   1.084       .  S
C3920      C3921   1.404       .  A
C3921      C3922   1.394       .  A
C3921     Br3928   1.919       .  S
C3922      C3923   1.407       .  A
C3922      H3927   1.082       .  S
C3923      C3924   1.415       .  A
C3924     Br3925   1.920       .  S
C3929      C3930   1.399       .  A
C3929      C3934   1.400       .  A
C3929      H3936   1.084       .  S
C3930      C3931   1.402       .  A
C3931      C3932   1.395       .  A
C3931     Br3938   1.919       .  S
C3932      C3933   1.408       .  A
C3932      H3937   1.082       .  S
C3933      C3934   1.418       .  A
C3934     Br3935   1.919       .  S
C3939      C3940   1.399       .  A
C3939      C3944   1.399       .  A
C3939      H3946   1.084       .  S
C3940      C3941   1.404       .  A
C3941      C3942   1.396       .  A
C3941     Br3948   1.919       .  S
C3942      C3943   1.405       .  A
C3942      H3947   1.083       .  S
C3943      C3944   1.414       .  A
C3944     Br3945   1.920       .  S
C3949      C3950   1.408       .  A
C3949      C3954   1.399       .  A
C3949      H3956   1.082       .  S
C3950      C3951   1.417       .  A
C3951      C3952   1.398       .  A
C3951     Br3958   1.921       .  S
C3952      C3953   1.398       .  A
C3952      H3957   1.084       .  S
C3953      C3954   1.404       .  A
C3954     Br3955   1.918       .  S
C3959      C3960   1.399       .  A
C3959      C3964   1.400       .  A
C3959      H3966   1.084       .  S
C3960      C3961   1.403       .  A
C3961      C3962   1.395       .  A
C3961     Br3968   1.919       .  S
C3962      C3963   1.408       .  A
C3962      H3967   1.082       .  S
C3963      C3964   1.417       .  A
C3964     Br3965   1.919       .  S
C3969      C3970   1.396       .  A
C3969      C3974   1.397       .  A
C3969      H3976   1.084       .  S
C3970      C3971   1.403       .  A
C3971      C3972   1.399       .  A
C3971     Br3978   1.918       .  S
C3972      C3973   1.408       .  A
C3972      H3977   1.082       .  S
C3973      C3974   1.419       .  A
C3974     Br3975   1.921       .  S
C3979      C3980   1.407       .  A
C3979      C3984   1.396       .  A
C3979      H3986   1.083       .  S
C3980      C3981   1.414       .  A
C3981      C3982   1.398       .  A
C3981     Br3988   1.920       .  S
C3982      C3983   1.399       .  A
C3982      H3987   1.084       .  S
C3983      C3984   1.402       .  A
C3984     Br3985   1.918       .  S
C3989      C3990   1.406       .  A
C3989      C3994   1.398       .  A
C3989      H3996   1.083       .  S
C3990      C3991   1.416       .  A
C3991      C3992   1.397       .  A
C3991     Br3998   1.920       .  S
C3992      C3993   1.398       .  A
C3992      H3997   1.084       .  S
C3993      C3994   1.405       .  A
C3994     Br3995   1.919       .  S
C3999      C4000   1.399       .  A
C3999      C4004   1.401       .  A
C3999      H4006   1.084       .  S
C4000      C4001   1.403       .  A
C4001      C4002   1.396       .  A
C4001     Br4008   1.919       .  S
C4002      C4003   1.409       .  A
C4002      H4007   1.082       .  S
C4003      C4004   1.418       .  A
C4004     Br4005   1.919       .  S
C4009      C4010   1.399       .  A
C4009      C4014   1.398       .  A
C4009      H4016   1.084       .  S
C4010      C4011   1.406       .  A
C4011      C4012   1.399       .  A
C4011     Br4018   1.919       .  S
C4012      C4013   1.406       .  A
C4012      H4017   1.083       .  S
C4013      C4014   1.416       .  A
C4014     Br4015   1.920       .  S
C4019      C4020   1.403       .  A
C4019      C4024   1.399       .  A
C4019      H4026   1.083       .  S
C4020      C4021   1.408       .  A
C4021      C4022   1.397       .  A
C4021     Br4028   1.919       .  S
C4022      C4023   1.402       .  A
C4022      H4027   1.083       .  S
C4023      C4024   1.407       .  A
C4024     Br4025   1.918       .  S
C4029      C4030   1.405       .  A
C4029      C4034   1.402       .  A
C4029      H4036   1.083       .  S
C4030      C4031   1.412       .  A
C4031      C4032   1.395       .  A
C4031     Br4038   1.922       .  S
C4032      C4033   1.406       .  A
C4032      H4037   1.082       .  S
C4033      C4034   1.416       .  A
C4034     Br4035   1.919       .  S
C4039      C4040   1.407       .  A
C4039      C4044   1.395       .  A
C4039      H4046   1.082       .  S
C4040      C4041   1.415       .  A
C4041      C4042   1.400       .  A
C4041     Br4048   1.920       .  S
C4042      C4043   1.401       .  A
C4042      H4047   1.084       .  S
C4043      C4044   1.403       .  A
C4044     Br4045   1.919       .  S
C4049      C4050   1.401       .  A
C4049      C4054   1.398       .  A
C4049      H4056   1.084       .  S
C4050      C4051   1.407       .  A
C4051      C4052   1.398       .  A
C4051     Br4058   1.918       .  S
C4052      C4053   1.402       .  A
C4052      H4057   1.083       .  S
C4053      C4054   1.411       .  A
C4054     Br4055   1.920       .  S
C4059      C4060   1.400       .  A
C4059      C4064   1.401       .  A
C4059      H4066   1.084       .  S
C4060      C4061   1.403       .  A
C4061      C4062   1.395       .  A
C4061     Br4068   1.919       .  S
C4062      C4063   1.408       .  A
C4062      H4067   1.082       .  S
C4063      C4064   1.417       .  A
C4064     Br4065   1.919       .  S
C4069      C4070   1.404       .  A
C4069      C4074   1.402       .  A
C4069      H4076   1.083       .  S
C4070      C4071   1.410       .  A
C4071      C4072   1.394       .  A
C4071     Br4078   1.922       .  S
C4072      C4073   1.406       .  A
C4072      H4077   1.082       .  S
C4073      C4074   1.416       .  A
C4074     Br4075   1.919       .  S
C4079      C4080   1.406       .  A
C4079      C4084   1.399       .  A
C4079      H4086   1.083       .  S
C4080      C4081   1.412       .  A
C4081      C4082   1.397       .  A
C4081     Br4088   1.920       .  S
C4082      C4083   1.399       .  A
C4082      H4087   1.083       .  S
C4083      C4084   1.405       .  A
C4084     Br4085   1.918       .  S
C4089      C4090   1.401       .  A
C4089      C4094   1.400       .  A
C4089      H4096   1.084       .  S
C4090      C4091   1.405       .  A
C4091      C4092   1.396       .  A
C4091     Br4098   1.920       .  S
C4092      C4093   1.407       .  A
C4092      H4097   1.083       .  S
C4093      C4094   1.415       .  A
C4094     Br4095   1.919       .  S
C4099      C4100   1.400       .  A
C4099      C4104   1.399       .  A
C4099      H4106   1.084       .  S
C4100      C4101   1.405       .  A
C4101      C4102   1.395       .  A
C4101     Br4108   1.920       .  S
C4102      C4103   1.407       .  A
C4102      H4107   1.082       .  S
C4103      C4104   1.416       .  A
C4104     Br4105   1.919       .  S
C4109      C4110   1.406       .  A
C4109      C4114   1.397       .  A
C4109      H4116   1.083       .  S
C4110      C4111   1.415       .  A
C4111      C4112   1.396       .  A
C4111     Br4118   1.920   1_455  S
C4112      C4113   1.398       .  A
C4112      H4117   1.084       .  S
C4113      C4114   1.405       .  A
C4114     Br4115   1.919       .  S
C4119      C4120   1.400       .  A
C4119      C4124   1.396       .  A
C4119      H4126   1.084       .  S
C4120      C4121   1.407       .  A
C4121      C4122   1.398       .  A
C4121     Br4128   1.918       .  S
C4122      C4123   1.402       .  A
C4122      H4127   1.083       .  S
C4123      C4124   1.411       .  A
C4124     Br4125   1.920       .  S
C4129      C4130   1.406       .  A
C4129      C4134   1.394       .  A
C4129      H4136   1.082       .  S
C4130      C4131   1.415       .  A
C4131      C4132   1.401       .  A
C4131     Br4138   1.919       .  S
C4132      C4133   1.405       .  A
C4132      H4137   1.083       .  S
C4133      C4134   1.411       .  A
C4134     Br4135   1.922       .  S
C4139      C4140   1.405       .  A
C4139      C4144   1.395       .  A
C4139      H4146   1.082       .  S
C4140      C4141   1.416       .  A
C4141      C4142   1.401       .  A
C4141     Br4148   1.920       .  S
C4142      C4143   1.403       .  A
C4142      H4147   1.083       .  S
C4143      C4144   1.411       .  A
C4144     Br4145   1.921       .  S
C4149      C4150   1.402       .  A
C4149      C4154   1.398       .  A
C4149      H4156   1.083       .  S
C4150      C4151   1.408       .  A
C4151      C4152   1.399       .  A
C4151     Br4158   1.918       .  S
C4152      C4153   1.400       .  A
C4152      H4157   1.083       .  S
C4153      C4154   1.407       .  A
C4154     Br4155   1.919       .  S
C4159      C4160   1.405       .  A
C4159      C4164   1.400       .  A
C4159      H4166   1.083       .  S
C4160      C4161   1.412       .  A
C4161      C4162   1.397       .  A
C4161     Br4168   1.920       .  S
C4162      C4163   1.404       .  A
C4162      H4167   1.083       .  S
C4163      C4164   1.411       .  A
C4164     Br4165   1.919       .  S
C4169      C4170   1.407       .  A
C4169      C4174   1.396       .  A
C4169      H4176   1.082       .  S
C4170      C4171   1.416       .  A
C4171      C4172   1.401       .  A
C4171     Br4178   1.920       .  S
C4172      C4173   1.401       .  A
C4172      H4177   1.084       .  S
C4173      C4174   1.405       .  A
C4174     Br4175   1.919       .  S
C4179      C4180   1.400       .  A
C4179      C4184   1.400       .  A
C4179      H4186   1.084       .  S
C4180      C4181   1.403       .  A
C4181      C4182   1.396       .  A
C4181     Br4188   1.919       .  S
C4182      C4183   1.407       .  A
C4182      H4187   1.082       .  S
C4183      C4184   1.415       .  A
C4184     Br4185   1.920       .  S
C4189      C4190   1.400       .  A
C4189      C4194   1.397       .  A
C4189      H4196   1.084       .  S
C4190      C4191   1.408       .  A
C4191      C4192   1.399       .  A
C4191     Br4198   1.919       .  S
C4192      C4193   1.406       .  A
C4192      H4197   1.083       .  S
C4193      C4194   1.415       .  A
C4194     Br4195   1.921       .  S
C4199      C4200   1.401       .  A
C4199      C4204   1.399       .  A
C4199      H4206   1.083       .  S
C4200      C4201   1.404       .  A
C4201      C4202   1.397       .  A
C4201     Br4208   1.918       .  S
C4202      C4203   1.404       .  A
C4202      H4207   1.083       .  S
C4203      C4204   1.410       .  A
C4204     Br4205   1.919       .  S
C4209      C4210   1.405       .  A
C4209      C4214   1.396       .  A
C4209      H4216   1.082       .  S
C4210      C4211   1.414       .  A
C4211      C4212   1.400       .  A
C4211     Br4218   1.920       .  S
C4212      C4213   1.404       .  A
C4212      H4217   1.083       .  S
C4213      C4214   1.411       .  A
C4214     Br4215   1.921       .  S
C4219      C4220   1.404       .  A
C4219      C4224   1.400       .  A
C4219      H4226   1.083       .  S
C4220      C4221   1.411       .  A
C4221      C4222   1.394       .  A
C4221     Br4228   1.922       .  S
C4222      C4223   1.405       .  A
C4222      H4227   1.082       .  S
C4223      C4224   1.415       .  A
C4224     Br4225   1.919       .  S
C4229      C4230   1.399       .  A
C4229      C4234   1.397       .  A
C4229      H4236   1.084       .  S
C4230      C4231   1.407       .  A
C4231      C4232   1.399       .  A
C4231     Br4238   1.919       .  S
C4232      C4233   1.406       .  A
C4232      H4237   1.083       .  S
C4233      C4234   1.415       .  A
C4234     Br4235   1.921       .  S
C4239      C4240   1.400       .  A
C4239      C4244   1.397       .  A
C4239      H4246   1.084       .  S
C4240      C4241   1.404       .  A
C4241      C4242   1.398       .  A
C4241     Br4248   1.918       .  S
C4242      C4243   1.405       .  A
C4242      H4247   1.083       .  S
C4243      C4244   1.412       .  A
C4244     Br4245   1.920       .  S
C4249      C4250   1.400       .  A
C4249      C4254   1.401       .  A
C4249      H4256   1.084       .  S
C4250      C4251   1.405       .  A
C4251      C4252   1.395       .  A
C4251     Br4258   1.920       .  S
C4252      C4253   1.408       .  A
C4252      H4257   1.082       .  S
C4253      C4254   1.417       .  A
C4254     Br4255   1.919       .  S
C4259      C4260   1.401       .  A
C4259      C4264   1.399       .  A
C4259      H4266   1.084       .  S
C4260      C4261   1.409       .  A
C4261      C4262   1.399       .  A
C4261     Br4268   1.918       .  S
C4262      C4263   1.401       .  A
C4262      H4267   1.083       .  S
C4263      C4264   1.410       .  A
C4264     Br4265   1.920       .  S
C4269      C4270   1.398       .  A
C4269      C4274   1.399       .  A
C4269      H4276   1.083       .  S
C4270      C4271   1.405       .  A
C4271      C4272   1.398       .  A
C4271     Br4278   1.918       .  S
C4272      C4273   1.406       .  A
C4272      H4277   1.083       .  S
C4273      C4274   1.416       .  A
C4274     Br4275   1.920       .  S
C4279      C4280   1.404       .  A
C4279      C4284   1.396       .  A
C4279      H4286   1.082       .  S
C4280      C4281   1.415       .  A
C4281      C4282   1.397       .  A
C4281     Br4288   1.921       .  S
C4282      C4283   1.402       .  A
C4282      H4287   1.083       .  S
C4283      C4284   1.413       .  A
C4284     Br4285   1.921       .  S
C4289      C4290   1.406       .  A
C4289      C4294   1.394       .  A
C4289      H4296   1.082       .  S
C4290      C4291   1.416       .  A
C4291      C4292   1.401       .  A
C4291     Br4298   1.919       .  S
C4292      C4293   1.405       .  A
C4292      H4297   1.083       .  S
C4293      C4294   1.411       .  A
C4294     Br4295   1.922       .  S
C4299      C4300   1.405       .  A
C4299      C4304   1.400       .  A
C4299      H4306   1.083       .  S
C4300      C4301   1.412       .  A
C4301      C4302   1.393       .  A
C4301     Br4308   1.922       .  S
C4302      C4303   1.404       .  A
C4302      H4307   1.082       .  S
C4303      C4304   1.414       .  A
C4304     Br4305   1.919       .  S
C4309      C4310   1.403       .  A
C4309      C4314   1.399       .  A
C4309      H4316   1.083       .  S
C4310      C4311   1.412       .  A
C4311      C4312   1.398       .  A
C4311     Br4318   1.920       .  S
C4312      C4313   1.400       .  A
C4312      H4317   1.084       .  S
C4313      C4314   1.406       .  A
C4314     Br4315   1.918       .  S
C4319      C4320   1.406       .  A
C4319      C4324   1.397       .  A
C4319      H4326   1.083       .  S
C4320      C4321   1.416       .  A
C4321      C4322   1.399       .  A
C4321     Br4328   1.920       .  S
C4322      C4323   1.398       .  A
C4322      H4327   1.083       .  S
C4323      C4324   1.405       .  A
C4324     Br4325   1.919       .  S
C4329      C4330   1.406       .  A
C4329      C4334   1.395       .  A
C4329      H4336   1.083       .  S
C4330      C4331   1.414       .  A
C4331      C4332   1.401       .  A
C4331     Br4338   1.920       .  S
C4332      C4333   1.401       .  A
C4332      H4337   1.084       .  S
C4333      C4334   1.402       .  A
C4334     Br4335   1.918       .  S
C4339      C4340   1.405       .  A
C4339      C4344   1.396       .  A
C4339      H4346   1.083       .  S
C4340      C4341   1.414       .  A
C4341      C4342   1.398       .  A
C4341     Br4348   1.920       .  S
C4342      C4343   1.398       .  A
C4342      H4347   1.083       .  S
C4343      C4344   1.405       .  A
C4344     Br4345   1.919       .  S
C4349      C4350   1.405       .  A
C4349      C4354   1.398       .  A
C4349      H4356   1.083       .  S
C4350      C4351   1.413       .  A
C4351      C4352   1.398       .  A
C4351     Br4358   1.919       .  S
C4352      C4353   1.399       .  A
C4352      H4357   1.083       .  S
C4353      C4354   1.405       .  A
C4354     Br4355   1.918       .  S
C4359      C4360   1.403       .  A
C4359      C4364   1.397       .  A
C4359      H4366   1.083   1_455  S
C4360      C4361   1.408       .  A
C4361      C4362   1.398       .  A
C4361     Br4368   1.919       .  S
C4362      C4363   1.403       .  A
C4362      H4367   1.083       .  S
C4363      C4364   1.407       .  A
C4364     Br4365   1.918       .  S
