geometry optimzed in LAMMPS
_audit_creation_date              2020-11-30 
_audit_creation_method            'lammps2cif' 
_symmetry_space_group_name_H-M    'P1' 
_symmetry_Int_Tables_number       1 
_symmetry_cell_setting            triclinic 
loop_ 
_symmetry_equiv_pos_as_xyz 
  x,y,z 
_cell_length_a                    54.58464612876684 
_cell_length_b                    55.476332682151124 
_cell_length_c                    26.907620385283654 
_cell_angle_alpha                 90.21128790075988 
_cell_angle_beta                  90.31436697406264 
_cell_angle_gamma                 120.95032240571535 
loop_ 
_atom_site_label 
_atom_site_type_symbol 
_atom_site_fract_x 
_atom_site_fract_y 
_atom_site_fract_z 
_atom_site_charge 
O1          O  0.34114657  0.12645182  0.58493101    -0.84960
O2          O  0.28667306  0.11645474  0.84627340    -0.85130
O3          O  0.33005409  0.08491054  0.74744336    -0.86800
O4          O  0.26225169  0.08734184  0.67837105    -0.85560
O5          O  0.25048920  0.12064180  0.66067477    -0.85150
O6          O  0.37498470  0.11794557  0.77536394    -0.86520
O7          O  0.27765271  0.08495934  0.78355618    -0.84990
O8          O  0.31629827  0.09024829  0.63871847    -0.84580
Zr9        Zr  0.30889610  0.11034850  0.71483770     2.84310
O10         O  0.29143960  0.13727990  0.74984876    -1.06560
O11         O  0.35538424  0.13941272  0.68741779    -1.07290
C12         C  0.32873106  0.10038548  0.59665561     1.08140
C13         C  0.27308206  0.09155645  0.82711689     1.08090
C14         C  0.35359697  0.09235113  0.77045469     1.11070
C15         C  0.24585854  0.09513123  0.65923546     1.08850
H16         H  0.33605312  0.12333022  0.80891634     0.34410
O17         O  0.33713767  0.13577945  0.78299841    -1.27510
H18         H  0.29714532  0.12951865  0.62688258     0.34080
O19         O  0.30823504  0.14031254  0.65533504    -1.29190
O20         O  0.33862481  0.20682049  0.86163917    -0.84960
O21         O  0.38610485  0.21459294  0.59235407    -0.86460
O22         O  0.39079548  0.16159927  0.84188225    -0.85040
O23         O  0.25848318  0.16634892  0.75377154    -0.85080
O24         O  0.28421595  0.16829591  0.60199805    -0.84800
O25         O  0.41788472  0.16943302  0.69519993    -0.84600
O26         O  0.41427305  0.24638431  0.75818291    -0.84970
O27         O  0.34551788  0.24775162  0.69063466    -0.84440
O28         O  0.41742155  0.21122933  0.79602304    -0.85500
O29         O  0.30058093  0.21488687  0.66283563    -0.84660
O30         O  0.35274354  0.15934683  0.88246346    -0.85060
O31         O  0.39907430  0.16986194  0.61875654    -0.84780
O32         O  0.32166745  0.16908983  0.56166420    -0.84430
O33         O  0.27614894  0.16316305  0.82974461    -0.84840
O34         O  0.36404298  0.24266715  0.80667605    -0.85130
O35         O  0.39645339  0.24725392  0.65337216    -0.86470
Zr36       Zr  0.32075136  0.16312258  0.81763219     2.83100
Zr37       Zr  0.35436308  0.16950570  0.62743928     2.83500
Zr38       Zr  0.38371854  0.16544326  0.75558649     2.84090
Zr39       Zr  0.29054066  0.16735104  0.68970029     2.83360
Zr40       Zr  0.36659514  0.22279483  0.72642165     2.84220
O41         O  0.33698022  0.19656180  0.66070863    -1.07040
O42         O  0.36630200  0.19266894  0.78730052    -1.06540
C43         C  0.35345031  0.23297117  0.85012428     1.08120
C44         C  0.39958361  0.23993071  0.60902043     1.10730
C45         C  0.37695902  0.15971113  0.88148268     1.08290
C46         C  0.25751581  0.16460792  0.80177720     1.08650
C47         C  0.29761069  0.16868830  0.56262808     1.08230
C48         C  0.41826213  0.16994078  0.64735299     1.07780
C49         C  0.42420994  0.23723245  0.79145139     1.08210
C50         C  0.32254376  0.24043051  0.66558884     1.07720
H51         H  0.40382329  0.20791627  0.68351262     0.34400
O52         O  0.38438124  0.19573592  0.69414790    -1.28140
H53         H  0.31335508  0.20530394  0.77060515     0.34420
O54         O  0.32016578  0.19374769  0.75676160    -1.29520
C55         C  0.47925560  0.48343824  0.46574368     0.03810
C56         C  0.50242066  0.47901086  0.46114785     0.03810
C57         C  0.03087995  0.00157090  0.45736264     0.03810
C58         C  0.03660692  0.02945590  0.45745317     0.03810
C59         C  0.01328647  0.03408324  0.46061537     0.03810
C60         C  0.48456485  0.01115426  0.46205151     0.03810
C61         C  0.01083436  0.16837031  0.55250539     0.04650
C62         C  0.01021010  0.14328115  0.54297154    -0.11500
C63         C  0.02888536  0.14244587  0.50832345     0.02150
C64         C  0.04788156  0.16711447  0.48290092    -0.10020
C65         C  0.04746187  0.19187330  0.49097199     0.04650
C66         C  0.02980655  0.19273865  0.52723064    -0.09440
H67         H  0.99385659  0.12411142  0.56020819     0.10240
H68         H  0.06197989  0.16684762  0.45501414     0.07770
H69         H  0.02854659  0.21151071  0.53183069     0.07620
C70         C  0.15551859  0.46150784  0.47972112     0.04650
C71         C  0.17619584  0.98424915  0.50916562    -0.11500
C72         C  0.17213582  0.00643962  0.52326527     0.02150
C73         C  0.14748411  0.00583730  0.50813588    -0.10020
C74         C  0.12528464  0.98262333  0.48335408     0.04650
C75         C  0.12954921  0.46056135  0.46798493    -0.09440
H76         H  0.19552114  0.98481565  0.52076962     0.10240
H77         H  0.14486029  0.02328731  0.51848909     0.07770
H78         H  0.11296527  0.44297343  0.44700510     0.07620
C79         C  0.34869894  0.03129068  0.46242634     0.04650
C80         C  0.37491206  0.03259173  0.46720212    -0.11500
C81         C  0.38243259  0.01798534  0.43389126     0.02150
C82         C  0.36352414  0.00293669  0.39417316    -0.10020
C83         C  0.33693422  0.00152007  0.38916348     0.04650
C84         C  0.32977158  0.01562361  0.42408748    -0.09440
H85         H  0.38950778  0.04514170  0.49686749     0.10240
H86         H  0.36921363  0.49181032  0.36794364     0.07770
H87         H  0.30929562  0.01432741  0.42188868     0.07620
C88         C  0.01090569  0.34669079  0.40378948     0.04650
C89         C  0.49416112  0.32372256  0.43561510    -0.11500
C90         C  0.47486209  0.32479608  0.46910399     0.02150
C91         C  0.47147051  0.34806227  0.46860514    -0.10020
C92         C  0.48818900  0.37071107  0.43800209     0.04650
C93         C  0.00778367  0.37014233  0.40600621    -0.09440
H94         H  0.49655453  0.30552843  0.43526694     0.10240
H95         H  0.45652261  0.34913675  0.49358852     0.07770
H96         H  0.02181811  0.38883572  0.38493069     0.07620
C97         C  0.20546689  0.15077818  0.43878150     0.04650
C98         C  0.17950389  0.12535133  0.44821287    -0.11500
C99         C  0.15324311  0.12166614  0.43106278     0.02150
C100        C  0.15307635  0.14354763  0.40576266    -0.10020
C101        C  0.17850657  0.16876741  0.39641162     0.04650
C102        C  0.20454820  0.17184972  0.41140620    -0.09440
H103        H  0.17958667  0.10901701  0.47000595     0.10240
H104        H  0.13282504  0.14118761  0.39460528     0.07770
H105        H  0.22419625  0.19121797  0.40303059     0.07620
C106        C  0.33756054  0.33228946  0.53872055     0.04650
C107        C  0.36353537  0.35873259  0.53802109    -0.11500
C108        C  0.37069930  0.37751189  0.49711027     0.02150
C109        C  0.35143131  0.36748296  0.45664043    -0.10020
C110        C  0.32405060  0.34404015  0.46050576     0.04650
C111        C  0.31714010  0.32619749  0.50134955    -0.09440
H112        H  0.37760010  0.36357694  0.56939708     0.10240
H113        H  0.35674705  0.37809437  0.42152636     0.07770
H114        H  0.29638547  0.30708932  0.50277647     0.07620
O115        O  0.12947179  0.29439417  0.36053716    -0.84960
O116        O  0.11223155  0.32329813  0.09226762    -0.85130
O117        O  0.08999316  0.32801028  0.26441352    -0.86800
O118        O  0.08354876  0.25605659  0.19735835    -0.85560
O119        O  0.11543879  0.24323598  0.17311784    -0.85150
O120        O  0.12548058  0.37433318  0.27435860    -0.86520
O121        O  0.08243516  0.30529790  0.15883088    -0.84990
O122        O  0.09175564  0.27940219  0.30639737    -0.84580
Zr123      Zr  0.11062746  0.30355608  0.22737779     2.84310
O124        O  0.13374508  0.29710099  0.16062842    -1.06560
O125        O  0.14303743  0.33798973  0.28202777    -1.07290
C126        C  0.10285250  0.27943620  0.34903793     1.08140
C127        C  0.08783881  0.31371705  0.11341704     1.08090
C128        C  0.09972033  0.35314864  0.28035197     1.11070
C129        C  0.08972449  0.23891071  0.17688400     1.08850
H130        H  0.12510437  0.35310524  0.17595838     0.34410
O131        O  0.13756812  0.34662909  0.18704961    -1.27510
H132        H  0.12906327  0.27011519  0.27333014     0.34080
O133        O  0.14026298  0.28821381  0.25776996    -1.29190
O134        O  0.20315120  0.36858665  0.07226099    -0.84960
O135        O  0.21917732  0.33822712  0.34481870    -0.86460
O136        O  0.16694571  0.40758186  0.17382416    -0.85040
O137        O  0.15972517  0.27018642  0.10463815    -0.85080
O138        O  0.16856419  0.25679953  0.25766335    -0.84800
O139        O  0.17374295  0.39427229  0.32670690    -0.84600
O140        O  0.25181813  0.40761325  0.23190995    -0.84970
O141        O  0.24519534  0.33424837  0.17290809    -0.84440
O142        O  0.22060615  0.42060969  0.26001406    -0.85500
O143        O  0.21023163  0.28775347  0.16333094    -0.84660
O144        O  0.15857135  0.38124725  0.10246669    -0.85060
O145        O  0.17232127  0.35901373  0.37351587    -0.84780
O146        O  0.17339945  0.27981940  0.33158374    -0.84430
O147        O  0.15554470  0.30295412  0.05943922    -0.84840
O148        O  0.24112051  0.38379278  0.12642882    -0.85130
O149        O  0.24983487  0.35500045  0.27885943    -0.86470
Zr150      Zr  0.16058439  0.33953263  0.11987705     2.83100
Zr151      Zr  0.17216331  0.32292025  0.31445190     2.83500
Zr152      Zr  0.17100729  0.38096592  0.24171966     2.84090
Zr153      Zr  0.16458210  0.28311221  0.19064673     2.83360
Zr154      Zr  0.22397924  0.35929269  0.20664951     2.84220
O155        O  0.19630313  0.31684621  0.24773057    -1.07040
O156        O  0.19413874  0.37425645  0.17481858    -1.06540
C157        C  0.22986718  0.38351071  0.08362857     1.08120
C158        C  0.24372313  0.34738352  0.32492183     1.10730
C159        C  0.16150861  0.40263395  0.12688194     1.08290
C160        C  0.15660941  0.28014315  0.06366279     1.08650
C161        C  0.17157483  0.25927152  0.30524725     1.08230
C162        C  0.17306431  0.38290314  0.36847539     1.07780
C163        C  0.24603327  0.42420199  0.25563300     1.08210
C164        C  0.23612027  0.30889218  0.15843928     1.07720
H165        H  0.21350125  0.37777357  0.29865025     0.34400
O166        O  0.20029378  0.36523952  0.27369654    -1.28140
H167        H  0.20144297  0.32424273  0.12162443     0.34420
O168        O  0.19159589  0.32591230  0.14988756    -1.29520
C169        C  0.44898875  0.14048652  0.01209073     0.04650
C170        C  0.47144715  0.16049311  0.04312141    -0.11500
C171        C  0.49302657  0.15574675  0.06063538     0.02150
C172        C  0.49153456  0.13061784  0.04835529    -0.10020
C173        C  0.46937433  0.11013022  0.01885638     0.04650
C174        C  0.44816221  0.11515790  0.00036166    -0.09440
H175        H  0.47263706  0.18009251  0.05234009     0.10240
H176        H  0.00817335  0.12704037  0.06174227     0.07770
H177        H  0.43152701  0.09975313  0.97607512     0.07620
C178        C  0.49057386  0.02030033  0.97768818     0.03810
C179        C  0.46767255  0.49243188  0.98067199     0.03810
C180        C  0.47246734  0.47017575  0.98733893     0.03810
C181        C  0.00030433  0.47502516  0.98358685     0.03810
C182        C  0.02341176  0.50280397  0.97626416     0.03810
C183        C  0.01875724  0.02570600  0.97465738     0.03810
C184        C  0.14977857  0.47565346  0.99275244     0.04650
C185        C  0.17196264  0.49065565  0.95923715    -0.11500
C186        C  0.17195992  0.01104065  0.92916168     0.02150
C187        C  0.14913764  0.01576007  0.93072055    -0.10020
C188        C  0.12616828  0.49996891  0.96257428     0.04650
C189        C  0.12656042  0.47979807  0.99333247    -0.09440
H190        H  0.19011513  0.48770410  0.95860294     0.10240
H191        H  0.14988791  0.03245491  0.90872427     0.07770
H192        H  0.10922106  0.46798073  0.01896196     0.07620
C193        C  0.00803926  0.33515266  0.01366683     0.04650
C194        C  0.48979321  0.31493555  0.97955578    -0.11500
C195        C  0.47551877  0.32133018  0.94384216     0.02150
C196        C  0.47810157  0.34792621  0.94432897    -0.10020
C197        C  0.49581719  0.36841799  0.98008260     0.04650
C198        C  0.01122529  0.36185810  0.01401275    -0.09440
H199        H  0.48868131  0.29483461  0.97801371     0.10240
H200        H  0.46654157  0.35256450  0.91689637     0.07770
H201        H  0.02660605  0.37780810  0.03925729     0.07620
C202        C  0.14294178  0.18877430  0.94388340     0.04650
C203        C  0.11838704  0.16268195  0.95543932    -0.11500
C204        C  0.11523236  0.13729249  0.93774674     0.02150
C205        C  0.13721750  0.13792518  0.90995910    -0.10020
C206        C  0.16205200  0.16348961  0.89893954     0.04650
C207        C  0.16429148  0.18876998  0.91450308    -0.09440
H208        H  0.10192954  0.16197338  0.97877808     0.10240
H209        H  0.13511116  0.11835160  0.89736420     0.07770
H210        H  0.18325485  0.20847407  0.90504078     0.07620
C211        C  0.33570266  0.49628628  0.88147510     0.04650
C212        C  0.30999370  0.47769797  0.90630084    -0.11500
C213        C  0.30869804  0.45666158  0.93751062     0.02150
C214        C  0.33306880  0.45487562  0.94458280    -0.10020
C215        C  0.35872543  0.47407078  0.92223796     0.04650
C216        C  0.35981823  0.49416105  0.88981865    -0.09440
H217        H  0.29145214  0.47982131  0.90199961     0.10240
H218        H  0.33252745  0.43953205  0.97015553     0.07770
H219        H  0.38010624  0.00956032  0.87380181     0.07620
C220        C  0.36089673  0.30804682  0.00526938     0.04650
C221        C  0.33671354  0.30068155  0.03399499    -0.11500
C222        C  0.33478439  0.32146264  0.06050130     0.02150
C223        C  0.35738091  0.34969589  0.05795372    -0.10020
C224        C  0.38178432  0.35696923  0.02964537     0.04650
C225        C  0.38385403  0.33569536  0.00572698    -0.09440
H226        H  0.31848114  0.27942767  0.03216924     0.10240
H227        H  0.35514560  0.36607123  0.07548580     0.07770
H228        H  0.40246154  0.34102367  0.98346452     0.07620
C229        C  0.39327498  0.47997711  0.98853704     0.25120
C230        C  0.38532020  0.47584815  0.93793922    -0.22990
C231        C  0.40405183  0.47610049  0.90225571     0.20030
C232        C  0.43079370  0.48126404  0.91680281     0.25060
C233        C  0.43891550  0.48603833  0.96707757    -0.22930
C234        C  0.42001012  0.48493934  0.00305523     0.19960
F235        F  0.42775285  0.48938513  0.05176672    -0.12890
F236        F  0.37573216  0.48058051  0.02346764    -0.15250
F237        F  0.44910364  0.48218267  0.88182975    -0.15250
F238        F  0.39655485  0.47176357  0.85338971    -0.12890
C239        C  0.06074002  0.07140624  0.00561608     0.25120
C240        C  0.04288062  0.05489771  0.96622386    -0.22990
C241        C  0.04811482  0.06614765  0.91812295     0.20030
C242        C  0.07116909  0.09325792  0.90928341     0.25060
C243        C  0.08931237  0.10971311  0.94846088    -0.22930
C244        C  0.08378591  0.09866295  0.99682031     0.19960
F245        F  0.10131792  0.11388787  0.03511676    -0.12890
F246        F  0.05600311  0.06098855  0.05241163    -0.15250
F247        F  0.07598361  0.10344374  0.86228946    -0.15250
F248        F  0.03116954  0.05058222  0.87949515    -0.12890
C249        C  0.06704482  0.00816489  0.01556496     0.25120
C250        C  0.05237603  0.50751230  0.97230215    -0.22990
C251        C  0.06359634  0.50755006  0.92557412     0.20030
C252        C  0.08828497  0.50605823  0.92213154     0.25060
C253        C  0.10224684  0.50511946  0.96558255    -0.22930
C254        C  0.09207224  0.00740531  0.01228822     0.19960
F255        F  0.10599143  0.00821931  0.05482652    -0.12890
F256        F  0.05635291  0.00823461  0.06097334    -0.15250
F257        F  0.09742053  0.50369425  0.87653888    -0.15250
F258        F  0.04964819  0.50726886  0.88344733    -0.12890
C259        C  0.00513161  0.43818173  0.93803565     0.25120
C260        C  0.00419271  0.45029584  0.98339002    -0.22990
C261        C  0.50190602  0.43608955  0.02775524     0.20030
C262        C  0.49912680  0.40955241  0.02669476     0.25060
C263        C  0.49935057  0.39695853  0.98113879    -0.22930
C264        C  0.00312995  0.41197780  0.93690961     0.19960
F265        F  0.00480550  0.40130098  0.89243979    -0.12890
F266        F  0.00650874  0.45109096  0.89452653    -0.15250
F267        F  0.49481008  0.39561241  0.07015913    -0.15250
F268        F  0.50088366  0.44734073  0.07201771    -0.12890
C269        C  0.43463051  0.42214347  0.95941280     0.25120
C270        C  0.44804992  0.44166162  0.99799494    -0.22990
C271        C  0.43853782  0.43400587  0.04702836     0.20030
C272        C  0.41659200  0.40660547  0.05765103     0.25060
C273        C  0.40362161  0.38668104  0.01912781    -0.22930
C274        C  0.41239514  0.39503433  0.96970970     0.19960
F275        F  0.39931731  0.37696308  0.93110708    -0.12890
F276        F  0.44321967  0.42932169  0.91174043    -0.15250
F277        F  0.40878937  0.39929691  0.10560066    -0.15250
F278        F  0.45111298  0.45291285  0.08470274    -0.12890
C279        C  0.97537257  0.07047403  0.04590879     0.25120
C280        C  0.47031331  0.08440352  0.00709217    -0.22990
C281        C  0.47111104  0.07644684  0.95762106     0.20030
C282        C  0.47801201  0.05577586  0.94735593     0.25060
C283        C  0.48470140  0.04328627  0.98636631    -0.22930
C284        C  0.98286717  0.05047771  0.03558141     0.19960
F285        F  0.98827753  0.03791507  0.07382506    -0.12890
F286        F  0.97381069  0.07686073  0.09413283    -0.15250
F287        F  0.47838403  0.04812385  0.89954852    -0.15250
F288        F  0.46654107  0.08954774  0.91931984    -0.12890
C289        C  0.12888592  0.24490941  0.99637778     0.25120
C290        C  0.15516860  0.26337136  0.01969546    -0.22990
C291        C  0.17810659  0.25902841  0.01268669     0.20030
C292        C  0.17435980  0.23545512  0.98682591     0.25060
C293        C  0.14757467  0.21575229  0.96590638    -0.22930
C294        C  0.12516166  0.22142631  0.96933757     0.19960
F295        F  0.09931192  0.20369955  0.94816253    -0.12890
F296        F  0.10615318  0.24818059  0.00345434    -0.15250
F297        F  0.19639974  0.23070087  0.98657232    -0.15250
F298        F  0.20358966  0.27622151  0.03559040    -0.12890
C299        C  0.29282808  0.32751501  0.06421042     0.25120
C300        C  0.30728735  0.31467010  0.08306654    -0.22990
C301        C  0.29540082  0.29587751  0.12312538     0.20030
C302        C  0.27045531  0.29174153  0.14628889     0.25060
C303        C  0.25709266  0.30601167  0.12888159    -0.22930
C304        C  0.26801790  0.32318123  0.08677469     0.19960
F305        F  0.25538983  0.33712182  0.06916136    -0.12890
F306        F  0.30316547  0.34486865  0.02444432    -0.15250
F307        F  0.26051820  0.27542327  0.18732398    -0.15250
F308        F  0.30878865  0.28283420  0.14140000    -0.12890
C309        C  0.03828729  0.30601418  0.10548091     0.25120
C310        C  0.06549215  0.31541931  0.08487191    -0.22990
C311        C  0.07265222  0.33049964  0.03982157     0.20030
C312        C  0.05426211  0.33795329  0.01856891     0.25060
C313        C  0.02800471  0.32973865  0.04052936    -0.22930
C314        C  0.01960245  0.31298379  0.08306562     0.19960
F315        F  0.99340146  0.30352827  0.10288120    -0.12890
F316        F  0.02981353  0.29042793  0.14754374    -0.15250
F317        F  0.06196676  0.35307863  0.97593939    -0.15250
F318        F  0.09802256  0.33934911  0.01709653    -0.12890
C319        C  0.06931545  0.20291666  0.10795015     0.25120
C320        C  0.06520198  0.21407838  0.15200365    -0.22990
C321        C  0.03687466  0.20513627  0.16635312     0.20030
C322        C  0.01354443  0.18676284  0.13624965     0.25060
C323        C  0.01781278  0.17665533  0.09126934    -0.22930
C324        C  0.04594682  0.18458997  0.07783991     0.19960
F325        F  0.05092758  0.17523124  0.03454513    -0.12890
F326        F  0.09603659  0.21089337  0.09241348    -0.15250
F327        F  0.48669805  0.17852817  0.15147956    -0.15250
F328        F  0.03168633  0.21459495  0.20933131    -0.12890
C329        C  0.27918692  0.44948128  0.01229773     0.25120
C330        C  0.28386946  0.43835615  0.96884010    -0.22990
C331        C  0.26979995  0.40900361  0.96258590     0.20030
C332        C  0.25192775  0.39109250  0.99976492     0.25060
C333        C  0.24865121  0.40227563  0.04443191    -0.22930
C334        C  0.26181711  0.43155570  0.04997482     0.19960
F335        F  0.25791847  0.44274787  0.09200893    -0.12890
F336        F  0.29297979  0.47772608  0.01958983    -0.15250
F337        F  0.23873354  0.36283898  0.99304102    -0.15250
F338        F  0.27458432  0.39777469  0.92149338    -0.12890
C339        C  0.17756874  0.46749928  0.05760984     0.25120
C340        C  0.15210171  0.45748315  0.02986190    -0.22990
C341        C  0.12899122  0.43021164  0.03820548     0.20030
C342        C  0.13172384  0.41296815  0.07241396     0.25060
C343        C  0.15759927  0.42251287  0.09792216    -0.22930
C344        C  0.18033303  0.44997940  0.09124737     0.19960
F345        F  0.20551253  0.45936966  0.11568586    -0.12890
F346        F  0.19978089  0.49421926  0.05209615    -0.15250
F347        F  0.10919818  0.38679593  0.08057779    -0.15250
F348        F  0.10419577  0.41990222  0.01203867    -0.12890
C349        C  0.26277350  0.34927947  0.41042889     0.25120
C350        C  0.26558421  0.34782389  0.35849756    -0.22990
C351        C  0.28718967  0.34350769  0.34037282     0.20030
C352        C  0.30540017  0.34058535  0.37354107     0.25060
C353        C  0.30205994  0.34158263  0.42521815    -0.22930
C354        C  0.28060022  0.34592778  0.44321634     0.19960
F355        F  0.27788531  0.34848013  0.49282307    -0.12890
F356        F  0.24299455  0.35447538  0.42982400    -0.15250
F357        F  0.32645628  0.33698396  0.35531719    -0.15250
F358        F  0.29030878  0.34147301  0.29078792    -0.12890
C359        C  0.18851976  0.24087459  0.37464932     0.25120
C360        C  0.17283383  0.23622486  0.33036395    -0.22990
C361        C  0.15941461  0.20929255  0.30795204     0.20030
C362        C  0.16192028  0.18773691  0.32885822     0.25060
C363        C  0.17749439  0.19232281  0.37301893    -0.22930
C364        C  0.19081559  0.21907088  0.39581241     0.19960
F365        F  0.20558197  0.22394037  0.43910940    -0.12890
F366        F  0.20217867  0.26660414  0.39683622    -0.15250
F367        F  0.14936681  0.16235554  0.30544688    -0.15250
F368        F  0.14352262  0.20357498  0.26575305    -0.12890
C369        C  0.07482084  0.34310838  0.35985756     0.25120
C370        C  0.07990454  0.35582790  0.31300960    -0.22990
C371        C  0.06137789  0.36412260  0.29464005     0.20030
C372        C  0.03821329  0.36008337  0.32327387     0.25060
C373        C  0.03364304  0.34820965  0.37132837    -0.22930
C374        C  0.05248921  0.34004982  0.38937021     0.19960
F375        F  0.04956816  0.32932236  0.43568697    -0.12890
F376        F  0.09062581  0.33208305  0.37573749    -0.15250
F377        F  0.01974410  0.36699260  0.30332999    -0.15250
F378        F  0.06476412  0.37459851  0.24801529    -0.12890
C379        C  0.28765478  0.43764578  0.31106512     0.25120
C380        C  0.27024057  0.44582885  0.28614982    -0.22990
C381        C  0.27574431  0.47322456  0.29360912     0.20030
C382        C  0.29840338  0.49202326  0.32504859     0.25060
C383        C  0.31531458  0.48336274  0.35075836    -0.22930
C384        C  0.30951388  0.45591596  0.34309796     0.19960
F385        F  0.32379576  0.44591869  0.36906253    -0.12890
F386        F  0.28256791  0.41108674  0.30677568    -0.15470
F387        F  0.30378277  0.51866630  0.33032924    -0.15250
F388        F  0.25950014  0.48184497  0.27026194    -0.12890
C389        C  0.14780735  0.39099757  0.43951104     0.25120
C390        C  0.17277707  0.40002112  0.41152821    -0.22990
C391        C  0.19331287  0.42904391  0.41190329     0.20030
C392        C  0.18806720  0.44857731  0.43552148     0.25060
C393        C  0.16195624  0.43986346  0.45963652    -0.22930
C394        C  0.14225299  0.41065224  0.46270405     0.19960
F395        F  0.11729696  0.40110318  0.48723504    -0.12890
F396        F  0.12795013  0.36325952  0.44193392    -0.15250
F397        F  0.20774473  0.47636267  0.43106962    -0.15250
F398        F  0.21762372  0.43881772  0.38515885    -0.12890
C399        C  0.05195117  0.20981360  0.40542473     0.25120
C400        C  0.06081374  0.21494208  0.45538091    -0.22990
C401        C  0.08046149  0.24233955  0.47145303     0.20030
C402        C  0.09244769  0.26417917  0.43723412     0.25060
C403        C  0.08479532  0.25881646  0.38649049    -0.22930
C404        C  0.06379713  0.23158375  0.37117829     0.19960
F405        F  0.05617683  0.22552917  0.32256112    -0.12890
F406        F  0.03186533  0.18359404  0.38978187    -0.15250
F407        F  0.11235173  0.29036568  0.45334823    -0.15250
F408        F  0.08871336  0.24769845  0.51991649    -0.12890
C409        C  0.44615886  0.44278911  0.52045202     0.25120
C410        C  0.45014218  0.45874217  0.47748257    -0.22990
C411        C  0.42686108  0.44984147  0.44522030     0.20030
C412        C  0.40042599  0.42610262  0.45611257     0.25060
C413        C  0.39763135  0.40678884  0.49388942    -0.22930
C414        C  0.42125483  0.41646570  0.52700233     0.19960
F415        F  0.42112049  0.40106985  0.56596913    -0.12890
F416        F  0.46692221  0.45242306  0.55584970    -0.15250
F417        F  0.37767248  0.42345603  0.43057053    -0.15250
F418        F  0.42949823  0.46384228  0.40252973    -0.12890
C419        C  0.02319483  0.08145383  0.43377530     0.25120
C420        C  0.01864194  0.06241234  0.47165801    -0.22990
C421        C  0.01763008  0.06963086  0.52126131     0.20030
C422        C  0.02230159  0.09608739  0.53329436     0.25060
C423        C  0.02634699  0.11524595  0.49551405    -0.22930
C424        C  0.02635368  0.10748069  0.44545271     0.19960
F425        F  0.02809840  0.12444481  0.40769435    -0.12890
F426        F  0.02367109  0.07449290  0.38554126    -0.15250
F427        F  0.02299806  0.10296628  0.58198673    -0.15250
F428        F  0.01250854  0.05102063  0.55820567    -0.12890
C429        C  0.11065839  0.09363873  0.48527630     0.25120
C430        C  0.12516209  0.09603436  0.44088510    -0.22990
C431        C  0.11048714  0.07667065  0.40226327     0.20030
C432        C  0.08168258  0.05567949  0.40750040     0.25060
C433        C  0.06697556  0.05321532  0.45186042    -0.22930
C434        C  0.08207123  0.07206280  0.49118028     0.19960
F435        F  0.06940427  0.06943512  0.53560399    -0.12890
F436        F  0.12395125  0.11282484  0.52232167    -0.15250
F437        F  0.06796105  0.03785748  0.36885287    -0.15250
F438        F  0.12389196  0.07868404  0.35877225    -0.12890
C439        C  0.41669362  0.01229277  0.48919832     0.25120
C440        C  0.40961023  0.01799242  0.44183081    -0.22990
C441        C  0.42865306  0.02357756  0.40245872     0.20030
C442        C  0.45366951  0.02273303  0.40992671     0.25060
C443        C  0.46015488  0.01609346  0.45679636    -0.22930
C444        C  0.44171248  0.01142722  0.49655731     0.19960
F445        F  0.44749158  0.00511774  0.54219033    -0.12890
F446        F  0.39875109  0.00634376  0.52806198    -0.15250
F447        F  0.47060932  0.02646920  0.37043892    -0.15250
F448        F  0.42300517  0.02973536  0.35657699    -0.12890
C449        C  0.08460223  0.47834885  0.42984580     0.25120
C450        C  0.09814335  0.98281094  0.47651935    -0.22990
C451        C  0.08830330  0.99220870  0.51638028     0.20030
C452        C  0.06776996  0.99961927  0.50878419     0.25060
C453        C  0.05476563  0.99588258  0.46217200    -0.22930
C454        C  0.06270204  0.48440858  0.42296550     0.19960
F455        F  0.04964098  0.47961326  0.37792126    -0.12890
F456        F  0.09328608  0.46928128  0.39057981    -0.15250
F457        F  0.05987190  0.00976570  0.54763316    -0.15250
F458        F  0.09922348  0.99496132  0.56296405    -0.12890
C459        C  0.48158658  0.40879664  0.40614913     0.25120
C460        C  0.48873758  0.39691243  0.44527966    -0.22990
C461        C  0.99918262  0.41137778  0.49047978     0.20030
C462        C  0.00317793  0.43797876  0.49619342     0.25060
C463        C  0.49661029  0.45019473  0.45677022    -0.22930
C464        C  0.48535333  0.43539892  0.41203002     0.19960
F465        F  0.47903005  0.44720861  0.37371850    -0.12890
F466        F  0.47158471  0.39486587  0.36223476    -0.15250
F467        F  0.01393803  0.45199116  0.53977317    -0.15250
F468        F  0.00682309  0.40025390  0.52811757    -0.12890
C469        C  0.22105421  0.14846725  0.86988974     0.25120
C470        C  0.23310734  0.16437453  0.82666054    -0.22990
C471        C  0.22147255  0.17996970  0.80726653     0.20030
C472        C  0.19844994  0.17973066  0.83065453     0.25060
C473        C  0.18632072  0.16365952  0.87359410    -0.22930
C474        C  0.19786284  0.14801505  0.89292661     0.19960
F475        F  0.18703179  0.13268494  0.93488171    -0.12890
F476        F  0.23131924  0.13283658  0.88940628    -0.15250
F477        F  0.18770454  0.19489419  0.81084635    -0.15250
F478        F  0.23278344  0.19599538  0.76618299    -0.12890
C479        C  0.36032930  0.27891838  0.87852804     0.25120
C480        C  0.35773478  0.25306503  0.89012146    -0.22990
C481        C  0.35696660  0.24563585  0.94057289     0.20030
C482        C  0.35803868  0.26347378  0.97842335     0.25060
C483        C  0.36007391  0.28894645  0.96643980    -0.22930
C484        C  0.36130731  0.29657733  0.91633387     0.19960
F485        F  0.36233022  0.32077241  0.90391949    -0.12890
F486        F  0.36044539  0.28655250  0.83059905    -0.15250
F487        F  0.35722366  0.25599036  0.02664955    -0.15250
F488        F  0.35521594  0.22113812  0.95336803    -0.12890
C489        C  0.46945609  0.18307773  0.64659086     0.25120
C490        C  0.44234551  0.17000466  0.62340531    -0.22990
C491        C  0.43810591  0.15598305  0.57775119     0.20030
C492        C  0.46041673  0.15483510  0.55577937     0.25060
C493        C  0.48730138  0.16777762  0.57891333    -0.22930
C494        C  0.49191999  0.18212434  0.62412736     0.19960
F495        F  0.01812392  0.19524645  0.64616971    -0.12890
F496        F  0.47436757  0.19728529  0.69024459    -0.15250
F497        F  0.45603881  0.14168858  0.51109823    -0.15250
F498        F  0.41222701  0.14288190  0.55474780    -0.12890
C499        C  0.43844130  0.28969007  0.58947307     0.25120
C500        C  0.42015004  0.26166461  0.57397530    -0.22990
C501        C  0.42200388  0.25434977  0.52408055     0.20030
C502        C  0.44081739  0.27456926  0.49070331     0.25060
C503        C  0.45831455  0.30253144  0.50599712    -0.22930
C504        C  0.45737873  0.30979168  0.55597472     0.19960
F505        F  0.47466012  0.33662361  0.57232225    -0.12890
F506        F  0.43800239  0.29788961  0.63690217    -0.15250
F507        F  0.44079603  0.26702348  0.44262850    -0.15250
F508        F  0.40511508  0.22771419  0.50658150    -0.12890
C509        C  0.42816905  0.25225723  0.87884916     0.25120
C510        C  0.44037492  0.25751525  0.83129612    -0.22990
C511        C  0.46269161  0.28474550  0.81984837     0.20030
C512        C  0.47313823  0.30613946  0.85583947     0.25060
C513        C  0.46108860  0.30066905  0.90346493    -0.22930
C514        C  0.43864442  0.27354194  0.91476297     0.19960
F515        F  0.42681131  0.26777545  0.96067695    -0.12890
F516        F  0.40470977  0.22703328  0.88942056    -0.15250
F517        F  0.49553019  0.33198117  0.84473352    -0.15250
F518        F  0.47394513  0.29066311  0.77352093    -0.12890
C519        C  0.42140764  0.17809321  0.93209304     0.25120
C520        C  0.39187519  0.15830283  0.92732871    -0.22990
C521        C  0.38054373  0.13371235  0.95605390     0.20030
C522        C  0.39870773  0.12818899  0.98543284     0.25060
C523        C  0.42853173  0.14741419  0.98743133    -0.22930
C524        C  0.43930879  0.17287646  0.96176150     0.19960
F525        F  0.46783185  0.19176607  0.96127508    -0.12890
F526        F  0.43372944  0.20148473  0.90362532    -0.15250
F527        F  0.38726609  0.10360581  0.01055778    -0.15250
F528        F  0.35234249  0.11403221  0.95270218    -0.12890
C529        C  0.30373751  0.27130976  0.63227887     0.25120
C530        C  0.32431783  0.26323159  0.63339364    -0.22990
C531        C  0.34896305  0.27843401  0.60412497     0.20030
C532        C  0.35337288  0.30119274  0.57533336     0.25060
C533        C  0.33318601  0.30964201  0.57423742    -0.22930
C534        C  0.30809682  0.29430340  0.60279435     0.19960
F535        F  0.28806210  0.30184451  0.60270479    -0.12890
F536        F  0.27994088  0.25753415  0.66047491    -0.15250
F537        F  0.37703244  0.31425354  0.54653600    -0.15250
F538        F  0.36878159  0.27070907  0.60221845    -0.12890
C539        C  0.26738552  0.14362138  0.48821913     0.25120
C540        C  0.28258547  0.16843491  0.51666792    -0.22990
C541        C  0.27456730  0.18872485  0.51345645     0.20030
C542        C  0.25002478  0.18310726  0.48732716     0.25060
C543        C  0.23322390  0.15730818  0.46199510    -0.22930
C544        C  0.24290057  0.13812476  0.46087149     0.19960
F545        F  0.22805736  0.11363141  0.43501519    -0.12890
F546        F  0.27441875  0.12348525  0.49112883    -0.15250
F547        F  0.24132501  0.20199781  0.49090338    -0.15250
F548        F  0.28858729  0.21271524  0.54105831    -0.12890
C549        C  0.34110903  0.06487035  0.84727638     0.25120
C550        C  0.35317635  0.06984467  0.79966556    -0.22990
C551        C  0.35803263  0.04975088  0.77768898     0.20030
C552        C  0.35153822  0.02529946  0.80368913     0.25060
C553        C  0.33942116  0.02033721  0.85155295    -0.22930
C554        C  0.33439414  0.04044730  0.87308620     0.19960
F555        F  0.32351029  0.03673027  0.91956612    -0.12890
F556        F  0.33454139  0.08319850  0.86781287    -0.15250
F557        F  0.35668416  0.00623123  0.78191964    -0.15250
F558        F  0.36833426  0.05348606  0.73076889    -0.12890
C559        C  0.23196742  0.04187800  0.83694516     0.25120
C560        C  0.24911439  0.06946038  0.85617037    -0.22990
C561        C  0.24105076  0.07657877  0.90118317     0.20030
C562        C  0.21565004  0.05746607  0.92404757     0.25060
C563        C  0.19816977  0.03072812  0.90342730    -0.22930
C564        C  0.20671248  0.02262910  0.86072317     0.19960
F565        F  0.19025403  0.99632948  0.84151784    -0.12890
F566        F  0.23915476  0.03356892  0.79472648    -0.15250
F567        F  0.20804312  0.06502646  0.96669481    -0.15250
F568        F  0.25725104  0.10223370  0.92293089    -0.12890
C569        C  0.19601787  0.02302840  0.60616027     0.25120
C570        C  0.19156789  0.02945191  0.55783797    -0.22990
C571        C  0.20152436  0.05776507  0.54590619     0.20030
C572        C  0.21657432  0.07925813  0.58106674     0.25060
C573        C  0.22224795  0.07294142  0.62872390    -0.22930
C574        C  0.21104667  0.04445162  0.64123329     0.19960
F575        F  0.21547281  0.03739205  0.68729498    -0.12890
F576        F  0.18524821  0.99588525  0.61980118    -0.15250
F577        F  0.22701346  0.10633557  0.56754015    -0.15250
F578        F  0.19699405  0.06461786  0.49977069    -0.12890
C579        C  0.32256234  0.03564315  0.53464962     0.25120
C580        C  0.34187149  0.04805448  0.49547151    -0.22990
C581        C  0.35446626  0.07677940  0.48671011     0.20030
C582        C  0.34865710  0.09333077  0.51761012     0.25060
C583        C  0.33077990  0.08157112  0.55950518    -0.22930
C584        C  0.31719278  0.05229319  0.56682750     0.19960
F585        F  0.29896856  0.03975672  0.60516886    -0.12890
F586        F  0.30944010  0.00752971  0.54229008    -0.15250
F587        F  0.36120289  0.12104415  0.50653788    -0.15250
F588        F  0.37257866  0.08886611  0.44800397    -0.12890
O589        O  0.34114657  0.62645182  0.58493102    -0.84960
O590        O  0.28667305  0.61645474  0.84627340    -0.85130
O591        O  0.33005409  0.58491054  0.74744336    -0.86800
O592        O  0.26225168  0.58734184  0.67837104    -0.85560
O593        O  0.25048919  0.62064179  0.66067477    -0.85150
O594        O  0.37498470  0.61794557  0.77536394    -0.86520
O595        O  0.27765270  0.58495934  0.78355619    -0.84990
O596        O  0.31629827  0.59024828  0.63871848    -0.84580
Zr597      Zr  0.30889610  0.61034850  0.71483770     2.84310
O598        O  0.29143960  0.63727989  0.74984876    -1.06560
O599        O  0.35538424  0.63941272  0.68741779    -1.07290
C600        C  0.32873106  0.60038548  0.59665562     1.08140
C601        C  0.27308206  0.59155645  0.82711690     1.08090
C602        C  0.35359696  0.59235113  0.77045470     1.11070
C603        C  0.24585853  0.59513122  0.65923545     1.08850
H604        H  0.33605311  0.62333022  0.80891636     0.34410
O605        O  0.33713767  0.63577944  0.78299842    -1.27510
H606        H  0.29714532  0.62951865  0.62688258     0.34080
O607        O  0.30823503  0.64031254  0.65533504    -1.29190
O608        O  0.33862481  0.70682049  0.86163917    -0.84960
O609        O  0.38610483  0.71459293  0.59235406    -0.86460
O610        O  0.39079548  0.66159927  0.84188225    -0.85040
O611        O  0.25848317  0.66634892  0.75377154    -0.85080
O612        O  0.28421594  0.66829591  0.60199806    -0.84800
O613        O  0.41788473  0.66943304  0.69519995    -0.84600
O614        O  0.41427304  0.74638431  0.75818290    -0.84970
O615        O  0.34551787  0.74775161  0.69063466    -0.84440
O616        O  0.41742154  0.71122933  0.79602304    -0.85500
O617        O  0.30058092  0.71488686  0.66283563    -0.84660
O618        O  0.35274354  0.65934683  0.88246347    -0.85060
O619        O  0.39907432  0.66986199  0.61875656    -0.84780
O620        O  0.32166744  0.66908984  0.56166421    -0.84430
O621        O  0.27614894  0.66316305  0.82974462    -0.84840
O622        O  0.36404297  0.74266715  0.80667605    -0.85130
O623        O  0.39645338  0.74725392  0.65337216    -0.86470
Zr624      Zr  0.32075136  0.66312258  0.81763219     2.83100
Zr625      Zr  0.35436307  0.66950569  0.62743928     2.83500
Zr626      Zr  0.38371853  0.66544325  0.75558650     2.84090
Zr627      Zr  0.29054065  0.66735104  0.68970029     2.83360
Zr628      Zr  0.36659513  0.72279483  0.72642165     2.84220
O629        O  0.33698021  0.69656180  0.66070863    -1.07040
O630        O  0.36630200  0.69266894  0.78730052    -1.06540
C631        C  0.35345031  0.73297117  0.85012428     1.08120
C632        C  0.39958360  0.73993070  0.60902043     1.10730
C633        C  0.37695902  0.65971113  0.88148268     1.08290
C634        C  0.25751580  0.66460792  0.80177721     1.08650
C635        C  0.29761068  0.66868830  0.56262809     1.08230
C636        C  0.41826215  0.66994083  0.64735301     1.07780
C637        C  0.42420993  0.73723245  0.79145138     1.08210
C638        C  0.32254374  0.74043050  0.66558885     1.07720
H639        H  0.40382328  0.70791627  0.68351262     0.34400
O640        O  0.38438123  0.69573592  0.69414790    -1.28140
H641        H  0.31335508  0.70530393  0.77060515     0.34420
O642        O  0.32016578  0.69374769  0.75676160    -1.29520
C643        C  0.47925558  0.98343823  0.46574379     0.03810
C644        C  0.50242063  0.97901084  0.46114792     0.03810
C645        C  0.03087994  0.50157089  0.45736267     0.03810
C646        C  0.03660692  0.52945589  0.45745323     0.03810
C647        C  0.01328649  0.53408325  0.46061546     0.03810
C648        C  0.48456485  0.51115425  0.46205137     0.03810
C649        C  0.01083437  0.66837031  0.55250534     0.04650
C650        C  0.01021014  0.64328116  0.54297149    -0.11500
C651        C  0.02888544  0.64244590  0.50832344     0.02150
C652        C  0.04788163  0.66711452  0.48290093    -0.10020
C653        C  0.04746191  0.69187333  0.49097199     0.04650
C654        C  0.02980656  0.69273866  0.52723060    -0.09440
H655        H  0.99385663  0.62411142  0.56020812     0.10240
H656        H  0.06197999  0.66684769  0.45501418     0.07770
H657        H  0.02854658  0.71151071  0.53183065     0.07620
C658        C  0.15551856  0.96150781  0.47972121     0.04650
C659        C  0.17619586  0.48424918  0.50916554    -0.11500
C660        C  0.17213583  0.50643965  0.52326519     0.02150
C661        C  0.14748413  0.50583733  0.50813578    -0.10020
C662        C  0.12528467  0.48262336  0.48335396     0.04650
C663        C  0.12954918  0.96056131  0.46798505    -0.09440
H664        H  0.19552115  0.48481568  0.52076956     0.10240
H665        H  0.14486029  0.52328733  0.51848901     0.07770
H666        H  0.11296523  0.94297339  0.44700523     0.07620
C667        C  0.34869892  0.53129066  0.46242635     0.04650
C668        C  0.37491204  0.53259171  0.46720209    -0.11500
C669        C  0.38243256  0.51798531  0.43389123     0.02150
C670        C  0.36352409  0.50293664  0.39417316    -0.10020
C671        C  0.33693417  0.50152003  0.38916351     0.04650
C672        C  0.32977155  0.51562358  0.42408751    -0.09440
H673        H  0.38950778  0.54514169  0.49686744     0.10240
H674        H  0.36921370  0.99181038  0.36794365     0.07770
H675        H  0.30929558  0.51432738  0.42188873     0.07620
C676        C  0.01090572  0.84669080  0.40378951     0.04650
C677        C  0.49416110  0.82372254  0.43561507    -0.11500
C678        C  0.47486207  0.82479606  0.46910396     0.02150
C679        C  0.47147048  0.84806224  0.46860510    -0.10020
C680        C  0.48818897  0.87071104  0.43800205     0.04650
C681        C  0.00778370  0.87014234  0.40600625    -0.09440
H682        H  0.49655451  0.80552842  0.43526691     0.10240
H683        H  0.45652258  0.84913673  0.49358848     0.07770
H684        H  0.02181813  0.88883573  0.38493072     0.07620
C685        C  0.20546686  0.65077819  0.43878160     0.04650
C686        C  0.17950386  0.62535134  0.44821298    -0.11500
C687        C  0.15324308  0.62166614  0.43106289     0.02150
C688        C  0.15307631  0.64354762  0.40576277    -0.10020
C689        C  0.17850653  0.66876740  0.39641173     0.04650
C690        C  0.20454816  0.67184973  0.41140630    -0.09440
H691        H  0.17958665  0.60901701  0.47000605     0.10240
H692        H  0.13282500  0.64118759  0.39460538     0.07770
H693        H  0.22419621  0.69121797  0.40303069     0.07620
C694        C  0.33756052  0.83228945  0.53872056     0.04650
C695        C  0.36353535  0.85873259  0.53802114    -0.11500
C696        C  0.37069929  0.87751189  0.49711032     0.02150
C697        C  0.35143132  0.86748297  0.45664046    -0.10020
C698        C  0.32405061  0.84404015  0.46050575     0.04650
C699        C  0.31714010  0.82619748  0.50134954    -0.09440
H700        H  0.37760006  0.86357695  0.56939716     0.10240
H701        H  0.35674707  0.87809439  0.42152640     0.07770
H702        H  0.29638547  0.80708931  0.50277643     0.07620
O703        O  0.12947180  0.79439420  0.36053718    -0.84960
O704        O  0.11223157  0.82329815  0.09226762    -0.85130
O705        O  0.08999318  0.82801030  0.26441352    -0.86800
O706        O  0.08354878  0.75605661  0.19735836    -0.85560
O707        O  0.11543881  0.74323599  0.17311784    -0.85150
O708        O  0.12548060  0.87433319  0.27435862    -0.86520
O709        O  0.08243518  0.80529792  0.15883088    -0.84990
O710        O  0.09175565  0.77940223  0.30639739    -0.84580
Zr711      Zr  0.11062748  0.80355610  0.22737779     2.84310
O712        O  0.13374510  0.79710100  0.16062843    -1.06560
O713        O  0.14303746  0.83798974  0.28202777    -1.07290
C714        C  0.10285251  0.77943623  0.34903794     1.08140
C715        C  0.08783883  0.81371706  0.11341704     1.08090
C716        C  0.09972035  0.85314866  0.28035198     1.11070
C717        C  0.08972450  0.73891072  0.17688401     1.08850
H718        H  0.12510439  0.85310526  0.17595839     0.34410
O719        O  0.13756814  0.84662911  0.18704962    -1.27510
H720        H  0.12906328  0.77011520  0.27333016     0.34080
O721        O  0.14026300  0.78821383  0.25776997    -1.29190
O722        O  0.20315121  0.86858666  0.07226100    -0.84960
O723        O  0.21917734  0.83822714  0.34481870    -0.86460
O724        O  0.16694573  0.90758187  0.17382417    -0.85040
O725        O  0.15972518  0.77018642  0.10463817    -0.85080
O726        O  0.16856418  0.75679952  0.25766337    -0.84800
O727        O  0.17374296  0.89427230  0.32670691    -0.84600
O728        O  0.25181816  0.90761326  0.23190997    -0.84970
O729        O  0.24519535  0.83424837  0.17290810    -0.84440
O730        O  0.22060619  0.92060970  0.26001407    -0.85500
O731        O  0.21023165  0.78775347  0.16333095    -0.84660
O732        O  0.15857137  0.88124727  0.10246670    -0.85060
O733        O  0.17232128  0.85901373  0.37351588    -0.84780
O734        O  0.17339945  0.77981940  0.33158375    -0.84430
O735        O  0.15554472  0.80295413  0.05943924    -0.84840
O736        O  0.24112052  0.88379278  0.12642882    -0.85130
O737        O  0.24983489  0.85500047  0.27885943    -0.86470
Zr738      Zr  0.16058441  0.83953264  0.11987706     2.83100
Zr739      Zr  0.17216332  0.82292026  0.31445191     2.83500
Zr740      Zr  0.17100732  0.88096594  0.24171967     2.84090
Zr741      Zr  0.16458211  0.78311222  0.19064675     2.83360
Zr742      Zr  0.22397925  0.85929270  0.20664952     2.84220
O743        O  0.19630314  0.81684622  0.24773058    -1.07040
O744        O  0.19413876  0.87425646  0.17481858    -1.06540
C745        C  0.22986719  0.88351072  0.08362857     1.08120
C746        C  0.24372315  0.84738353  0.32492182     1.10730
C747        C  0.16150863  0.90263397  0.12688195     1.08290
C748        C  0.15660943  0.78014315  0.06366281     1.08650
C749        C  0.17157482  0.75927152  0.30524727     1.08230
C750        C  0.17306432  0.88290315  0.36847541     1.07780
C751        C  0.24603330  0.92420200  0.25563301     1.08210
C752        C  0.23612028  0.80889218  0.15843929     1.07720
H753        H  0.21350127  0.87777358  0.29865026     0.34400
O754        O  0.20029380  0.86523953  0.27369655    -1.28140
H755        H  0.20144298  0.82424273  0.12162444     0.34420
O756        O  0.19159590  0.82591230  0.14988757    -1.29520
C757        C  0.44898876  0.64048652  0.01209071     0.04650
C758        C  0.47144716  0.66049312  0.04312139    -0.11500
C759        C  0.49302657  0.65574675  0.06063536     0.02150
C760        C  0.49153457  0.63061784  0.04835527    -0.10020
C761        C  0.46937433  0.61013022  0.01885636     0.04650
C762        C  0.44816222  0.61515790  0.00036165    -0.09440
H763        H  0.47263707  0.68009252  0.05234007     0.10240
H764        H  0.00817336  0.62704038  0.06174227     0.07770
H765        H  0.43152701  0.59975314  0.97607511     0.07620
C766        C  0.49057386  0.52030033  0.97768820     0.03810
C767        C  0.46767255  0.99243189  0.98067198     0.03810
C768        C  0.47246734  0.97017576  0.98733891     0.03810
C769        C  0.00030433  0.97502516  0.98358685     0.03810
C770        C  0.02341176  0.00280397  0.97626416     0.03810
C771        C  0.01875724  0.52570600  0.97465738     0.03810
C772        C  0.14977856  0.97565345  0.99275242     0.04650
C773        C  0.17196264  0.99065564  0.95923713    -0.11500
C774        C  0.17195992  0.51104066  0.92916170     0.02150
C775        C  0.14913764  0.51576008  0.93072057    -0.10020
C776        C  0.12616828  0.99996890  0.96257426     0.04650
C777        C  0.12656041  0.97979806  0.99333245    -0.09440
H778        H  0.19011512  0.98770409  0.95860292     0.10240
H779        H  0.14988792  0.53245492  0.90872429     0.07770
H780        H  0.10922106  0.96798073  0.01896195     0.07620
C781        C  0.00803927  0.83515267  0.01366684     0.04650
C782        C  0.48979321  0.81493555  0.97955577    -0.11500
C783        C  0.47551878  0.82133018  0.94384215     0.02150
C784        C  0.47810158  0.84792621  0.94432895    -0.10020
C785        C  0.49581719  0.86841799  0.98008259     0.04650
C786        C  0.01122531  0.86185811  0.01401276    -0.09440
H787        H  0.48868130  0.79483461  0.97801370     0.10240
H788        H  0.46654158  0.85256451  0.91689635     0.07770
H789        H  0.02660607  0.87780811  0.03925729     0.07620
C790        C  0.14294178  0.68877430  0.94388342     0.04650
C791        C  0.11838704  0.66268195  0.95543933    -0.11500
C792        C  0.11523236  0.63729249  0.93774676     0.02150
C793        C  0.13721750  0.63792518  0.90995911    -0.10020
C794        C  0.16205200  0.66348961  0.89893956     0.04650
C795        C  0.16429148  0.68876998  0.91450309    -0.09440
H796        H  0.10192954  0.66197338  0.97877809     0.10240
H797        H  0.13511116  0.61835160  0.89736421     0.07770
H798        H  0.18325485  0.70847407  0.90504080     0.07620
C799        C  0.33570267  0.99628628  0.88147509     0.04650
C800        C  0.30999370  0.97769797  0.90630083    -0.11500
C801        C  0.30869804  0.95666158  0.93751060     0.02150
C802        C  0.33306880  0.95487562  0.94458279    -0.10020
C803        C  0.35872543  0.97407078  0.92223794     0.04650
C804        C  0.35981824  0.99416105  0.88981864    -0.09440
H805        H  0.29145214  0.97982131  0.90199960     0.10240
H806        H  0.33252746  0.93953205  0.97015551     0.07770
H807        H  0.38010624  0.50956032  0.87380182     0.07620
C808        C  0.36089674  0.80804682  0.00526938     0.04650
C809        C  0.33671355  0.80068156  0.03399499    -0.11500
C810        C  0.33478440  0.82146264  0.06050130     0.02150
C811        C  0.35738092  0.84969589  0.05795372    -0.10020
C812        C  0.38178433  0.85696923  0.02964537     0.04650
C813        C  0.38385404  0.83569537  0.00572697    -0.09440
H814        H  0.31848115  0.77942767  0.03216924     0.10240
H815        H  0.35514561  0.86607123  0.07548580     0.07770
H816        H  0.40246155  0.84102367  0.98346452     0.07620
C817        C  0.39327498  0.97997711  0.98853702     0.25120
C818        C  0.38532021  0.97584815  0.93793920    -0.22990
C819        C  0.40405183  0.97610049  0.90225570     0.20030
C820        C  0.43079370  0.98126404  0.91680279     0.25060
C821        C  0.43891550  0.98603834  0.96707756    -0.22930
C822        C  0.42001012  0.98493934  0.00305522     0.19960
F823        F  0.42775285  0.98938513  0.05176671    -0.12890
F824        F  0.37573216  0.98058051  0.02346763    -0.15250
F825        F  0.44910365  0.98218268  0.88182974    -0.15250
F826        F  0.39655486  0.97176357  0.85338969    -0.12890
C827        C  0.06074002  0.57140624  0.00561609     0.25120
C828        C  0.04288062  0.55489771  0.96622387    -0.22990
C829        C  0.04811483  0.56614766  0.91812296     0.20030
C830        C  0.07116909  0.59325792  0.90928342     0.25060
C831        C  0.08931237  0.60971311  0.94846089    -0.22930
C832        C  0.08378591  0.59866296  0.99682032     0.19960
F833        F  0.10131792  0.61388787  0.03511677    -0.12890
F834        F  0.05600311  0.56098855  0.05241164    -0.15250
F835        F  0.07598362  0.60344374  0.86228947    -0.15250
F836        F  0.03116954  0.55058222  0.87949515    -0.12890
C837        C  0.06704481  0.50816489  0.01556497     0.25120
C838        C  0.05237604  0.00751230  0.97230215    -0.22990
C839        C  0.06359633  0.00755006  0.92557411     0.20030
C840        C  0.08828496  0.00605822  0.92213153     0.25060
C841        C  0.10224684  0.00511945  0.96558253    -0.22930
C842        C  0.09207224  0.50740531  0.01228824     0.19960
F843        F  0.10599142  0.50821932  0.05482654    -0.12890
F844        F  0.05635291  0.50823461  0.06097335    -0.15250
F845        F  0.09742052  0.00369424  0.87653886    -0.15250
F846        F  0.04964819  0.00726885  0.88344733    -0.12890
C847        C  0.00513161  0.93818173  0.93803565     0.25120
C848        C  0.00419271  0.95029584  0.98339003    -0.22990
C849        C  0.50190603  0.93608956  0.02775522     0.20030
C850        C  0.49912681  0.90955242  0.02669474     0.25060
C851        C  0.49935057  0.89695853  0.98113877    -0.22930
C852        C  0.00312995  0.91197780  0.93690962     0.19960
F853        F  0.00480550  0.90130098  0.89243979    -0.12890
F854        F  0.00650874  0.95109096  0.89452653    -0.15250
F855        F  0.49481009  0.89561241  0.07015911    -0.15250
F856        F  0.50088366  0.94734074  0.07201769    -0.12890
C857        C  0.43463051  0.92214347  0.95941279     0.25120
C858        C  0.44804992  0.94166163  0.99799492    -0.22990
C859        C  0.43853782  0.93400588  0.04702835     0.20030
C860        C  0.41659201  0.90660548  0.05765102     0.25060
C861        C  0.40362161  0.88668105  0.01912780    -0.22930
C862        C  0.41239514  0.89503434  0.96970969     0.19960
F863        F  0.39931732  0.87696308  0.93110707    -0.12890
F864        F  0.44321968  0.92932169  0.91174042    -0.15250
F865        F  0.40878938  0.89929692  0.10560065    -0.15250
F866        F  0.45111299  0.95291285  0.08470273    -0.12890
C867        C  0.97537258  0.57047404  0.04590879     0.25120
C868        C  0.47031331  0.58440352  0.00709216    -0.22990
C869        C  0.47111104  0.57644683  0.95762105     0.20030
C870        C  0.47801201  0.55577585  0.94735593     0.25060
C871        C  0.48470140  0.54328627  0.98636632    -0.22930
C872        C  0.98286718  0.55047772  0.03558142     0.19960
F873        F  0.98827754  0.53791508  0.07382507    -0.12890
F874        F  0.97381071  0.57686074  0.09413283    -0.15250
F875        F  0.47838403  0.54812384  0.89954853    -0.15250
F876        F  0.46654107  0.58954773  0.91931983    -0.12890
C877        C  0.12888593  0.74490942  0.99637780     0.25120
C878        C  0.15516861  0.76337136  0.01969547    -0.22990
C879        C  0.17810660  0.75902841  0.01268670     0.20030
C880        C  0.17435981  0.73545513  0.98682593     0.25060
C881        C  0.14757468  0.71575229  0.96590639    -0.22930
C882        C  0.12516167  0.72142632  0.96933759     0.19960
F883        F  0.09931193  0.70369956  0.94816255    -0.12890
F884        F  0.10615319  0.74818060  0.00345436    -0.15250
F885        F  0.19639974  0.73070087  0.98657234    -0.15250
F886        F  0.20358967  0.77622151  0.03559042    -0.12890
C887        C  0.29282809  0.82751502  0.06421043     0.25120
C888        C  0.30728736  0.81467010  0.08306654    -0.22990
C889        C  0.29540083  0.79587752  0.12312538     0.20030
C890        C  0.27045532  0.79174153  0.14628889     0.25060
C891        C  0.25709267  0.80601168  0.12888160    -0.22930
C892        C  0.26801791  0.82318123  0.08677470     0.19960
F893        F  0.25538984  0.83712183  0.06916137    -0.12890
F894        F  0.30316547  0.84486865  0.02444432    -0.15250
F895        F  0.26051821  0.77542327  0.18732398    -0.15250
F896        F  0.30878866  0.78283420  0.14140000    -0.12890
C897        C  0.03828731  0.80601419  0.10548091     0.25120
C898        C  0.06549217  0.81541932  0.08487191    -0.22990
C899        C  0.07265224  0.83049966  0.03982157     0.20030
C900        C  0.05426212  0.83795330  0.01856892     0.25060
C901        C  0.02800473  0.82973866  0.04052936    -0.22930
C902        C  0.01960247  0.81298379  0.08306562     0.19960
F903        F  0.99340147  0.80352828  0.10288120    -0.12890
F904        F  0.02981355  0.79042794  0.14754374    -0.15250
F905        F  0.06196677  0.85307864  0.97593939    -0.15250
F906        F  0.09802258  0.83934913  0.01709653    -0.12890
C907        C  0.06931547  0.70291668  0.10795016     0.25120
C908        C  0.06520199  0.71407840  0.15200365    -0.22990
C909        C  0.03687467  0.70513629  0.16635313     0.20030
C910        C  0.01354445  0.68676286  0.13624966     0.25060
C911        C  0.01781279  0.67665534  0.09126935    -0.22930
C912        C  0.04594683  0.68458999  0.07783992     0.19960
F913        F  0.05092759  0.67523126  0.03454514    -0.12890
F914        F  0.09603660  0.71089339  0.09241349    -0.15250
F915        F  0.48669806  0.67852817  0.15147954    -0.15250
F916        F  0.03168635  0.71459497  0.20933131    -0.12890
C917        C  0.27918693  0.94948128  0.01229772     0.25120
C918        C  0.28386947  0.93835615  0.96884009    -0.22990
C919        C  0.26979995  0.90900361  0.96258589     0.20030
C920        C  0.25192776  0.89109250  0.99976492     0.25060
C921        C  0.24865122  0.90227564  0.04443191    -0.22930
C922        C  0.26181712  0.93155571  0.04997482     0.19960
F923        F  0.25791848  0.94274788  0.09200893    -0.12890
F924        F  0.29297980  0.97772609  0.01958981    -0.15250
F925        F  0.23873355  0.86283898  0.99304103    -0.15250
F926        F  0.27458432  0.89777469  0.92149337    -0.12890
C927        C  0.17756875  0.96749928  0.05760983     0.25120
C928        C  0.15210171  0.95748315  0.02986190    -0.22990
C929        C  0.12899122  0.93021164  0.03820549     0.20030
C930        C  0.13172385  0.91296815  0.07241397     0.25060
C931        C  0.15759928  0.92251288  0.09792217    -0.22930
C932        C  0.18033304  0.94997941  0.09124737     0.19960
F933        F  0.20551254  0.95936967  0.11568585    -0.12890
F934        F  0.19978090  0.99421926  0.05209612    -0.15250
F935        F  0.10919819  0.88679594  0.08057782    -0.15250
F936        F  0.10419577  0.91990221  0.01203869    -0.12890
C937        C  0.26277353  0.84927949  0.41042888     0.25120
C938        C  0.26558424  0.84782390  0.35849755    -0.22990
C939        C  0.28718968  0.84350769  0.34037281     0.20030
C940        C  0.30540018  0.84058536  0.37354106     0.25060
C941        C  0.30205995  0.84158264  0.42521815    -0.22930
C942        C  0.28060025  0.84592780  0.44321633     0.19960
F943        F  0.27788534  0.84848016  0.49282306    -0.12890
F944        F  0.24299459  0.85447542  0.42982399    -0.15250
F945        F  0.32645629  0.83698395  0.35531718    -0.15250
F946        F  0.29030879  0.84147300  0.29078792    -0.12890
C947        C  0.18851973  0.74087459  0.37464936     0.25120
C948        C  0.17283380  0.73622485  0.33036399    -0.22990
C949        C  0.15941456  0.70929254  0.30795211     0.20030
C950        C  0.16192022  0.68773689  0.32885832     0.25060
C951        C  0.17749433  0.69232280  0.37301902    -0.22930
C952        C  0.19081555  0.71907087  0.39581248     0.19960
F953        F  0.20558194  0.72394037  0.43910947    -0.12890
F954        F  0.20217866  0.76660415  0.39683624    -0.15250
F955        F  0.14936673  0.66235551  0.30544700    -0.15250
F956        F  0.14352257  0.70357497  0.26575312    -0.12890
C957        C  0.07482087  0.84310840  0.35985758     0.25120
C958        C  0.07990456  0.85582792  0.31300962    -0.22990
C959        C  0.06137791  0.86412261  0.29464008     0.20030
C960        C  0.03821331  0.86008338  0.32327390     0.25060
C961        C  0.03364306  0.84820966  0.37132839    -0.22930
C962        C  0.05248924  0.84004983  0.38937023     0.19960
F963        F  0.04956819  0.82932237  0.43568699    -0.12890
F964        F  0.09062584  0.83208307  0.37573750    -0.15250
F965        F  0.01974411  0.86699261  0.30333002    -0.15250
F966        F  0.06476414  0.87459852  0.24801531    -0.12890
C967        C  0.28765483  0.93764581  0.31106510     0.25120
C968        C  0.27024061  0.94582887  0.28614981    -0.22990
C969        C  0.27574435  0.97322458  0.29360911     0.20030
C970        C  0.29840343  0.99202328  0.32504856     0.25060
C971        C  0.31531464  0.98336277  0.35075832    -0.22930
C972        C  0.30951395  0.95591600  0.34309793     0.19960
F973        F  0.32379584  0.94591873  0.36906248    -0.12890
F974        F  0.28256797  0.91108677  0.30677567    -0.15470
F975        F  0.30378282  0.01866633  0.33032920    -0.15250
F976        F  0.25950017  0.98184498  0.27026194    -0.12890
C977        C  0.14780735  0.89099755  0.43951107     0.25120
C978        C  0.17277706  0.90002112  0.41152822    -0.22990
C979        C  0.19331286  0.92904392  0.41190330     0.20030
C980        C  0.18806718  0.94857731  0.43552152     0.25060
C981        C  0.16195622  0.93986344  0.45963659    -0.22930
C982        C  0.14225298  0.91065221  0.46270411     0.19960
F983        F  0.11729696  0.90110315  0.48723513    -0.12890
F984        F  0.12795015  0.86325951  0.44193397    -0.15250
F985        F  0.20774469  0.97636267  0.43106965    -0.15250
F986        F  0.21762370  0.93881774  0.38515884    -0.12890
C987        C  0.05195118  0.70981364  0.40542474     0.25120
C988        C  0.06081377  0.71494211  0.45538092    -0.22990
C989        C  0.08046152  0.74233958  0.47145305     0.20030
C990        C  0.09244770  0.76417921  0.43723414     0.25060
C991        C  0.08479533  0.75881650  0.38649051    -0.22930
C992        C  0.06379714  0.73158379  0.37117831     0.19960
F993        F  0.05617682  0.72552921  0.32256114    -0.12890
F994        F  0.03186535  0.68359407  0.38978189    -0.15250
F995        F  0.11235174  0.79036572  0.45334824    -0.15250
F996        F  0.08871339  0.74769848  0.51991650    -0.12890
C997        C  0.44615885  0.94278908  0.52045209     0.25120
C998        C  0.45014216  0.95874217  0.47748268    -0.22990
C999        C  0.42686105  0.94984150  0.44522045     0.20030
C1000       C  0.40042596  0.92610264  0.45611272     0.25060
C1001       C  0.39763134  0.90678884  0.49388950    -0.22930
C1002       C  0.42125482  0.91646567  0.52700237     0.19960
F1003       F  0.42112050  0.90106977  0.56596909    -0.12890
F1004       F  0.46692221  0.95242301  0.55584976    -0.15250
F1005       F  0.37767244  0.92345605  0.43057072    -0.15250
F1006       F  0.42949818  0.96384234  0.40252993    -0.12890
C1007       C  0.02319495  0.58145386  0.43377536     0.25120
C1008       C  0.01864199  0.56241236  0.47165809    -0.22990
C1009       C  0.01763016  0.56963090  0.52126138     0.20030
C1010       C  0.02230169  0.59608744  0.53329440     0.25060
C1011       C  0.02634710  0.61524600  0.49551407    -0.22930
C1012       C  0.02635383  0.60748074  0.44545275     0.19960
F1013       F  0.02809862  0.62444487  0.40769437    -0.12890
F1014       F  0.02367125  0.57449293  0.38554134    -0.15250
F1015       F  0.02299814  0.60296633  0.58198676    -0.15250
F1016       F  0.01250859  0.55102067  0.55820575    -0.12890
C1017       C  0.11065843  0.59363858  0.48527651     0.25120
C1018       C  0.12516207  0.59603434  0.44088517    -0.22990
C1019       C  0.11048706  0.57667075  0.40226320     0.20030
C1020       C  0.08168251  0.55567957  0.40750036     0.25060
C1021       C  0.06697555  0.55321530  0.45186050    -0.22930
C1022       C  0.08207127  0.57206266  0.49118046     0.19960
F1023       F  0.06940433  0.56943488  0.53560424    -0.12890
F1024       F  0.12395136  0.61282457  0.52232203    -0.15250
F1025       F  0.06796092  0.53785765  0.36885274    -0.15250
F1026       F  0.12389181  0.57868427  0.35877204    -0.12890
C1027       C  0.41669363  0.51229279  0.48919826     0.25120
C1028       C  0.40961020  0.51799239  0.44183074    -0.22990
C1029       C  0.42865299  0.52357746  0.40245860     0.20030
C1030       C  0.45366944  0.52273294  0.40992656     0.25060
C1031       C  0.46015485  0.51609343  0.45679622    -0.22930
C1032       C  0.44171249  0.51142724  0.49655721     0.19960
F1033       F  0.44749164  0.50511782  0.54219025    -0.12890
F1034       F  0.39875115  0.50634383  0.52806196    -0.15250
F1035       F  0.47060921  0.52646905  0.37043873    -0.15250
F1036       F  0.42300505  0.52973520  0.35657686    -0.12890
C1037       C  0.08460219  0.97834878  0.42984592     0.25120
C1038       C  0.09814337  0.48281096  0.47651925    -0.22990
C1039       C  0.08830329  0.49220866  0.51638022     0.20030
C1040       C  0.06776994  0.49961920  0.50878419     0.25060
C1041       C  0.05476562  0.49588256  0.46217199    -0.22930
C1042       C  0.06270201  0.98440852  0.42296557     0.19960
F1043       F  0.04964092  0.97961313  0.37792134    -0.12890
F1044       F  0.09328600  0.96928114  0.39057997    -0.15250
F1045       F  0.05987184  0.50976557  0.54763321    -0.15250
F1046       F  0.09922346  0.49496123  0.56296399    -0.12890
C1047       C  0.48158655  0.90879663  0.40614913     0.25120
C1048       C  0.48873755  0.89691240  0.44527964    -0.22990
C1049       C  0.99918264  0.91137779  0.49047979     0.20030
C1050       C  0.00317794  0.93797878  0.49619342     0.25060
C1051       C  0.49661025  0.95019471  0.45677026    -0.22930
C1052       C  0.48535330  0.93539891  0.41203005     0.19960
F1053       F  0.47903001  0.94720860  0.37371855    -0.12890
F1054       F  0.47158467  0.89486587  0.36223475    -0.15250
F1055       F  0.01393804  0.95199119  0.53977316    -0.15250
F1056       F  0.00682311  0.90025392  0.52811760    -0.12890
C1057       C  0.22105421  0.64846725  0.86988975     0.25120
C1058       C  0.23310734  0.66437453  0.82666055    -0.22990
C1059       C  0.22147255  0.67996970  0.80726655     0.20030
C1060       C  0.19844994  0.67973067  0.83065455     0.25060
C1061       C  0.18632072  0.66365952  0.87359411    -0.22930
C1062       C  0.19786283  0.64801505  0.89292662     0.19960
F1063       F  0.18703179  0.63268493  0.93488172    -0.12890
F1064       F  0.23131923  0.63283658  0.88940628    -0.15250
F1065       F  0.18770454  0.69489419  0.81084637    -0.15250
F1066       F  0.23278344  0.69599538  0.76618301    -0.12890
C1067       C  0.36032930  0.77891839  0.87852804     0.25120
C1068       C  0.35773479  0.75306503  0.89012146    -0.22990
C1069       C  0.35696660  0.74563585  0.94057289     0.20030
C1070       C  0.35803869  0.76347378  0.97842335     0.25060
C1071       C  0.36007392  0.78894646  0.96643980    -0.22930
C1072       C  0.36130731  0.79657733  0.91633387     0.19960
F1073       F  0.36233023  0.82077242  0.90391949    -0.12890
F1074       F  0.36044539  0.78655250  0.83059905    -0.15250
F1075       F  0.35722367  0.75599037  0.02664955    -0.15250
F1076       F  0.35521595  0.72113813  0.95336803    -0.12890
C1077       C  0.46945610  0.68307770  0.64659102     0.25120
C1078       C  0.44234555  0.67000475  0.62340533    -0.22990
C1079       C  0.43810601  0.65598328  0.57775108     0.20030
C1080       C  0.46041683  0.65483533  0.55577928     0.25060
C1081       C  0.48730143  0.66777771  0.57891340    -0.22930
C1082       C  0.49192000  0.68212430  0.62412755     0.19960
F1083       F  0.01812388  0.69524624  0.64616984    -0.12890
F1084       F  0.47436753  0.69728514  0.69024488    -0.15250
F1085       F  0.45603896  0.64168893  0.51109802    -0.15250
F1086       F  0.41222716  0.64288226  0.55474751    -0.12890
C1087       C  0.43844129  0.78969006  0.58947305     0.25120
C1088       C  0.42015003  0.76166460  0.57397528    -0.22990
C1089       C  0.42200386  0.75434976  0.52408054     0.20030
C1090       C  0.44081737  0.77456924  0.49070330     0.25060
C1091       C  0.45831454  0.80253142  0.50599709    -0.22930
C1092       C  0.45737872  0.80979167  0.55597470     0.19960
F1093       F  0.47466011  0.83662360  0.57232222    -0.12890
F1094       F  0.43800239  0.79788960  0.63690215    -0.15250
F1095       F  0.44079602  0.76702346  0.44262849    -0.15250
F1096       F  0.40511506  0.72771417  0.50658150    -0.12890
C1097       C  0.42816905  0.75225723  0.87884915     0.25120
C1098       C  0.44037492  0.75751525  0.83129611    -0.22990
C1099       C  0.46269161  0.78474550  0.81984836     0.20030
C1100       C  0.47313823  0.80613946  0.85583945     0.25060
C1101       C  0.46108861  0.80066905  0.90346492    -0.22930
C1102       C  0.43864442  0.77354195  0.91476295     0.19960
F1103       F  0.42681132  0.76777545  0.96067694    -0.12890
F1104       F  0.40470977  0.72703328  0.88942055    -0.15250
F1105       F  0.49553019  0.83198117  0.84473350    -0.15250
F1106       F  0.47394512  0.79066310  0.77352091    -0.12890
C1107       C  0.42140764  0.67809321  0.93209303     0.25120
C1108       C  0.39187519  0.65830283  0.92732870    -0.22990
C1109       C  0.38054374  0.63371235  0.95605389     0.20030
C1110       C  0.39870774  0.62818899  0.98543283     0.25060
C1111       C  0.42853174  0.64741419  0.98743132    -0.22930
C1112       C  0.43930879  0.67287647  0.96176149     0.19960
F1113       F  0.46783185  0.69176607  0.96127506    -0.12890
F1114       F  0.43372944  0.70148474  0.90362532    -0.15250
F1115       F  0.38726610  0.60360581  0.01055777    -0.15250
F1116       F  0.35234250  0.61403222  0.95270218    -0.12890
C1117       C  0.30373749  0.77130974  0.63227886     0.25120
C1118       C  0.32431781  0.76323158  0.63339364    -0.22990
C1119       C  0.34896304  0.77843401  0.60412499     0.20030
C1120       C  0.35337287  0.80119273  0.57533338     0.25060
C1121       C  0.33318599  0.80964200  0.57423743    -0.22930
C1122       C  0.30809680  0.79430338  0.60279434     0.19960
F1123       F  0.28806207  0.80184449  0.60270477    -0.12890
F1124       F  0.27994086  0.75753413  0.66047489    -0.15250
F1125       F  0.37703243  0.81425355  0.54653603    -0.15250
F1126       F  0.36878159  0.77070908  0.60221848    -0.12890
C1127       C  0.26738551  0.64362139  0.48821914     0.25120
C1128       C  0.28258546  0.66843491  0.51666794    -0.22990
C1129       C  0.27456729  0.68872485  0.51345650     0.20030
C1130       C  0.25002475  0.68310726  0.48732724     0.25060
C1131       C  0.23322387  0.65730819  0.46199518    -0.22930
C1132       C  0.24290055  0.63812477  0.46087153     0.19960
F1133       F  0.22805734  0.61363142  0.43501522    -0.12890
F1134       F  0.27441874  0.62348526  0.49112881    -0.15250
F1135       F  0.24132497  0.70199780  0.49090349    -0.15250
F1136       F  0.28858728  0.71271524  0.54105837    -0.12890
C1137       C  0.34110902  0.56487035  0.84727638     0.25120
C1138       C  0.35317635  0.56984467  0.79966557    -0.22990
C1139       C  0.35803263  0.54975088  0.77768899     0.20030
C1140       C  0.35153821  0.52529946  0.80368915     0.25060
C1141       C  0.33942116  0.52033721  0.85155296    -0.22930
C1142       C  0.33439414  0.54044730  0.87308621     0.19960
F1143       F  0.32351029  0.53673027  0.91956613    -0.12890
F1144       F  0.33454138  0.58319850  0.86781288    -0.15250
F1145       F  0.35668416  0.50623123  0.78191965    -0.15250
F1146       F  0.36833426  0.55348606  0.73076890    -0.12890
C1147       C  0.23196740  0.54187801  0.83694515     0.25120
C1148       C  0.24911439  0.56946038  0.85617037    -0.22990
C1149       C  0.24105078  0.57657877  0.90118319     0.20030
C1150       C  0.21565005  0.55746607  0.92404760     0.25060
C1151       C  0.19816977  0.53072813  0.90342732    -0.22930
C1152       C  0.20671247  0.52262911  0.86072317     0.19960
F1153       F  0.19025400  0.49632949  0.84151783    -0.12890
F1154       F  0.23915473  0.53356893  0.79472646    -0.15250
F1155       F  0.20804315  0.56502645  0.96669486    -0.15250
F1156       F  0.25725107  0.60223369  0.92293092    -0.12890
C1157       C  0.19601787  0.52302841  0.60616021     0.25120
C1158       C  0.19156790  0.52945193  0.55783791    -0.22990
C1159       C  0.20152436  0.55776510  0.54590616     0.20030
C1160       C  0.21657432  0.57925814  0.58106672     0.25060
C1161       C  0.22224795  0.57294142  0.62872387    -0.22930
C1162       C  0.21104667  0.54445162  0.64123324     0.19960
F1163       F  0.21547281  0.53739204  0.68729493    -0.12890
F1164       F  0.18524821  0.49588525  0.61980110    -0.15250
F1165       F  0.22701346  0.60633558  0.56754015    -0.15250
F1166       F  0.19699406  0.56461789  0.49977066    -0.12890
C1167       C  0.32256230  0.53564314  0.53464959     0.25120
C1168       C  0.34187148  0.54805447  0.49547153    -0.22990
C1169       C  0.35446630  0.57677940  0.48671017     0.20030
C1170       C  0.34865715  0.59333077  0.51761017     0.25060
C1171       C  0.33077991  0.58157111  0.55950519    -0.22930
C1172       C  0.31719275  0.55229318  0.56682748     0.19960
F1173       F  0.29896849  0.53975671  0.60516878    -0.12890
F1174       F  0.30944002  0.50752968  0.54229000    -0.15250
F1175       F  0.36120297  0.62104415  0.50653796    -0.15250
F1176       F  0.37257873  0.58886611  0.44800407    -0.12890
O1177       O  0.84114656  0.12645181  0.58493101    -0.84960
O1178       O  0.78667305  0.11645474  0.84627340    -0.85130
O1179       O  0.83005408  0.08491054  0.74744336    -0.86800
O1180       O  0.76225168  0.08734184  0.67837104    -0.85560
O1181       O  0.75048918  0.12064179  0.66067477    -0.85150
O1182       O  0.87498469  0.11794557  0.77536393    -0.86520
O1183       O  0.77765270  0.08495934  0.78355619    -0.84990
O1184       O  0.81629827  0.09024828  0.63871847    -0.84580
Zr1185     Zr  0.80889609  0.11034850  0.71483769     2.84310
O1186       O  0.79143959  0.13727989  0.74984876    -1.06560
O1187       O  0.85538423  0.13941272  0.68741778    -1.07290
C1188       C  0.82873106  0.10038548  0.59665561     1.08140
C1189       C  0.77308206  0.09155645  0.82711690     1.08090
C1190       C  0.85359696  0.09235113  0.77045470     1.11070
C1191       C  0.74585852  0.09513122  0.65923545     1.08850
H1192       H  0.83605311  0.12333022  0.80891636     0.34410
O1193       O  0.83713766  0.13577944  0.78299842    -1.27510
H1194       H  0.79714531  0.12951865  0.62688258     0.34080
O1195       O  0.80823502  0.14031254  0.65533504    -1.29190
O1196       O  0.83862481  0.20682049  0.86163916    -0.84960
O1197       O  0.88610483  0.21459293  0.59235405    -0.86460
O1198       O  0.89079547  0.16159926  0.84188224    -0.85040
O1199       O  0.75848317  0.16634892  0.75377154    -0.85080
O1200       O  0.78421594  0.16829591  0.60199806    -0.84800
O1201       O  0.91788472  0.16943304  0.69519994    -0.84600
O1202       O  0.91427304  0.24638431  0.75818288    -0.84970
O1203       O  0.84551787  0.24775161  0.69063465    -0.84440
O1204       O  0.91742154  0.21122933  0.79602304    -0.85500
O1205       O  0.80058092  0.21488686  0.66283563    -0.84660
O1206       O  0.85274354  0.15934683  0.88246346    -0.85060
O1207       O  0.89907430  0.16986195  0.61875654    -0.84780
O1208       O  0.82166744  0.16908983  0.56166420    -0.84430
O1209       O  0.77614894  0.16316306  0.82974461    -0.84840
O1210       O  0.86404298  0.24266715  0.80667604    -0.85130
O1211       O  0.89645338  0.24725391  0.65337215    -0.86470
Zr1212     Zr  0.82075136  0.16312258  0.81763219     2.83100
Zr1213     Zr  0.85436306  0.16950569  0.62743927     2.83500
Zr1214     Zr  0.88371853  0.16544325  0.75558649     2.84090
Zr1215     Zr  0.79054065  0.16735104  0.68970029     2.83360
Zr1216     Zr  0.86659513  0.22279483  0.72642164     2.84220
O1217       O  0.83698021  0.19656179  0.66070862    -1.07040
O1218       O  0.86630199  0.19266894  0.78730052    -1.06540
C1219       C  0.85345031  0.23297117  0.85012428     1.08120
C1220       C  0.89958360  0.23993070  0.60902042     1.10730
C1221       C  0.87695901  0.15971113  0.88148267     1.08290
C1222       C  0.75751580  0.16460792  0.80177720     1.08650
C1223       C  0.79761067  0.16868830  0.56262809     1.08230
C1224       C  0.91826213  0.16994080  0.64735300     1.07780
C1225       C  0.92420993  0.23723244  0.79145137     1.08210
C1226       C  0.82254374  0.24043050  0.66558884     1.07720
H1227       H  0.90382328  0.20791627  0.68351261     0.34400
O1228       O  0.88438123  0.19573592  0.69414789    -1.28140
H1229       H  0.81335508  0.20530394  0.77060515     0.34420
O1230       O  0.82016577  0.19374769  0.75676160    -1.29520
C1231       C  0.97925559  0.48343824  0.46574378     0.03810
C1232       C  0.00242064  0.47901085  0.46114790     0.03810
C1233       C  0.53087993  0.00157088  0.45736268     0.03810
C1234       C  0.53660691  0.02945588  0.45745325     0.03810
C1235       C  0.51328648  0.03408324  0.46061547     0.03810
C1236       C  0.98456485  0.01115425  0.46205140     0.03810
C1237       C  0.51083435  0.16837030  0.55250531     0.04650
C1238       C  0.51021013  0.14328115  0.54297148    -0.11500
C1239       C  0.52888543  0.14244590  0.50832344     0.02150
C1240       C  0.54788162  0.16711452  0.48290093    -0.10020
C1241       C  0.54746190  0.19187332  0.49097198     0.04650
C1242       C  0.52980654  0.19273864  0.52723059    -0.09440
H1243       H  0.49385663  0.12411141  0.56020810     0.10240
H1244       H  0.56197999  0.16684769  0.45501419     0.07770
H1245       H  0.52854655  0.21151069  0.53183063     0.07620
C1246       C  0.65551855  0.46150780  0.47972124     0.04650
C1247       C  0.67619586  0.98424918  0.50916553    -0.11500
C1248       C  0.67213583  0.00643965  0.52326519     0.02150
C1249       C  0.64748413  0.00583733  0.50813578    -0.10020
C1250       C  0.62528467  0.98262337  0.48335395     0.04650
C1251       C  0.62954917  0.46056130  0.46798508    -0.09440
H1252       H  0.69552115  0.98481569  0.52076955     0.10240
H1253       H  0.64486028  0.02328733  0.51848901     0.07770
H1254       H  0.61296522  0.44297339  0.44700526     0.07620
C1255       C  0.84869893  0.03129066  0.46242634     0.04650
C1256       C  0.87491205  0.03259171  0.46720210    -0.11500
C1257       C  0.88243257  0.01798532  0.43389123     0.02150
C1258       C  0.86352410  0.00293666  0.39417315    -0.10020
C1259       C  0.83693418  0.00152004  0.38916350     0.04650
C1260       C  0.82977156  0.01562359  0.42408750    -0.09440
H1261       H  0.88950778  0.04514169  0.49686745     0.10240
H1262       H  0.86921370  0.49181037  0.36794365     0.07770
H1263       H  0.80929560  0.01432739  0.42188871     0.07620
C1264       C  0.51090572  0.34669081  0.40378952     0.04650
C1265       C  0.99416109  0.32372254  0.43561505    -0.11500
C1266       C  0.97486206  0.32479606  0.46910395     0.02150
C1267       C  0.97147048  0.34806225  0.46860509    -0.10020
C1268       C  0.98818896  0.37071105  0.43800204     0.04650
C1269       C  0.50778371  0.37014235  0.40600626    -0.09440
H1270       H  0.99655450  0.30552841  0.43526690     0.10240
H1271       H  0.95652257  0.34913673  0.49358848     0.07770
H1272       H  0.52181814  0.38883574  0.38493073     0.07620
C1273       C  0.70546684  0.15077818  0.43878162     0.04650
C1274       C  0.67950385  0.12535133  0.44821300    -0.11500
C1275       C  0.65324307  0.12166613  0.43106292     0.02150
C1276       C  0.65307629  0.14354761  0.40576280    -0.10020
C1277       C  0.67850651  0.16876740  0.39641175     0.04650
C1278       C  0.70454814  0.17184972  0.41140633    -0.09440
H1279       H  0.67958663  0.10901701  0.47000607     0.10240
H1280       H  0.63282498  0.14118758  0.39460541     0.07770
H1281       H  0.72419619  0.19121797  0.40303071     0.07620
C1282       C  0.83756053  0.33228946  0.53872056     0.04650
C1283       C  0.86353536  0.35873259  0.53802113    -0.11500
C1284       C  0.87069930  0.37751189  0.49711032     0.02150
C1285       C  0.85143132  0.36748297  0.45664046    -0.10020
C1286       C  0.82405062  0.34404015  0.46050576     0.04650
C1287       C  0.81714011  0.32619748  0.50134954    -0.09440
H1288       H  0.87760007  0.36357695  0.56939715     0.10240
H1289       H  0.85674708  0.37809440  0.42152640     0.07770
H1290       H  0.79638548  0.30708932  0.50277644     0.07620
O1291       O  0.62947179  0.29439420  0.36053718    -0.84960
O1292       O  0.61223157  0.32329815  0.09226763    -0.85130
O1293       O  0.58999318  0.32801030  0.26441352    -0.86800
O1294       O  0.58354877  0.25605661  0.19735837    -0.85560
O1295       O  0.61543880  0.24323599  0.17311785    -0.85150
O1296       O  0.62548060  0.37433320  0.27435863    -0.86520
O1297       O  0.58243518  0.30529792  0.15883089    -0.84990
O1298       O  0.59175565  0.27940223  0.30639739    -0.84580
Zr1299     Zr  0.61062748  0.30355610  0.22737780     2.84310
O1300       O  0.63374510  0.29710100  0.16062844    -1.06560
O1301       O  0.64303745  0.33798974  0.28202778    -1.07290
C1302       C  0.60285251  0.27943623  0.34903795     1.08140
C1303       C  0.58783883  0.31371706  0.11341705     1.08090
C1304       C  0.59972035  0.35314866  0.28035198     1.11070
C1305       C  0.58972449  0.23891072  0.17688402     1.08850
H1306       H  0.62510439  0.35310526  0.17595839     0.34410
O1307       O  0.63756814  0.34662911  0.18704963    -1.27510
H1308       H  0.62906327  0.27011520  0.27333016     0.34080
O1309       O  0.64026299  0.28821382  0.25776998    -1.29190
O1310       O  0.70315121  0.36858666  0.07226100    -0.84960
O1311       O  0.71917733  0.33822713  0.34481871    -0.86460
O1312       O  0.66694573  0.40758187  0.17382417    -0.85040
O1313       O  0.65972518  0.27018642  0.10463818    -0.85080
O1314       O  0.66856417  0.25679952  0.25766339    -0.84800
O1315       O  0.67374296  0.39427230  0.32670692    -0.84600
O1316       O  0.75181815  0.40761325  0.23190998    -0.84970
O1317       O  0.74519535  0.33424837  0.17290811    -0.84440
O1318       O  0.72060619  0.42060970  0.26001408    -0.85500
O1319       O  0.71023164  0.28775346  0.16333096    -0.84660
O1320       O  0.65857137  0.38124727  0.10246671    -0.85060
O1321       O  0.67232127  0.35901373  0.37351589    -0.84780
O1322       O  0.67339943  0.27981940  0.33158376    -0.84430
O1323       O  0.65554472  0.30295413  0.05943924    -0.84840
O1324       O  0.74112052  0.38379278  0.12642883    -0.85130
O1325       O  0.74983489  0.35500046  0.27885944    -0.86470
Zr1326     Zr  0.66058440  0.33953264  0.11987707     2.83100
Zr1327     Zr  0.67216332  0.32292026  0.31445192     2.83500
Zr1328     Zr  0.67100732  0.38096594  0.24171968     2.84090
Zr1329     Zr  0.66458210  0.28311222  0.19064676     2.83360
Zr1330     Zr  0.72397925  0.35929269  0.20664952     2.84220
O1331       O  0.69630314  0.31684622  0.24773059    -1.07040
O1332       O  0.69413876  0.37425646  0.17481859    -1.06540
C1333       C  0.72986719  0.38351071  0.08362858     1.08120
C1334       C  0.74372315  0.34738352  0.32492183     1.10730
C1335       C  0.66150863  0.40263397  0.12688196     1.08290
C1336       C  0.65660942  0.28014315  0.06366282     1.08650
C1337       C  0.67157481  0.25927151  0.30524728     1.08230
C1338       C  0.67306431  0.38290314  0.36847542     1.07780
C1339       C  0.74603330  0.42420200  0.25563302     1.08210
C1340       C  0.73612028  0.30889218  0.15843930     1.07720
H1341       H  0.71350127  0.37777358  0.29865027     0.34400
O1342       O  0.70029380  0.36523953  0.27369656    -1.28140
H1343       H  0.70144298  0.32424273  0.12162445     0.34420
O1344       O  0.69159590  0.32591230  0.14988758    -1.29520
C1345       C  0.94898875  0.14048651  0.01209071     0.04650
C1346       C  0.97144714  0.16049311  0.04312140    -0.11500
C1347       C  0.99302656  0.15574674  0.06063537     0.02150
C1348       C  0.99153455  0.13061783  0.04835528    -0.10020
C1349       C  0.96937432  0.11013021  0.01885637     0.04650
C1350       C  0.94816221  0.11515789  0.00036165    -0.09440
H1351       H  0.97263706  0.18009251  0.05234007     0.10240
H1352       H  0.50817335  0.12704038  0.06174227     0.07770
H1353       H  0.93152700  0.09975313  0.97607511     0.07620
C1354       C  0.99057386  0.02030032  0.97768820     0.03810
C1355       C  0.96767255  0.49243188  0.98067200     0.03810
C1356       C  0.97246734  0.47017575  0.98733893     0.03810
C1357       C  0.50030433  0.47502516  0.98358685     0.03810
C1358       C  0.52341176  0.50280397  0.97626417     0.03810
C1359       C  0.51875724  0.02570600  0.97465736     0.03810
C1360       C  0.64977857  0.47565346  0.99275243     0.04650
C1361       C  0.67196264  0.49065565  0.95923714    -0.11500
C1362       C  0.67195992  0.01104065  0.92916167     0.02150
C1363       C  0.64913763  0.01576007  0.93072053    -0.10020
C1364       C  0.62616828  0.49996890  0.96257427     0.04650
C1365       C  0.62656041  0.47979806  0.99333246    -0.09440
H1366       H  0.69011513  0.48770409  0.95860293     0.10240
H1367       H  0.64988791  0.03245491  0.90872426     0.07770
H1368       H  0.60922106  0.46798072  0.01896195     0.07620
C1369       C  0.50803927  0.33515267  0.01366683     0.04650
C1370       C  0.98979320  0.31493555  0.97955577    -0.11500
C1371       C  0.97551877  0.32133018  0.94384215     0.02150
C1372       C  0.97810157  0.34792621  0.94432896    -0.10020
C1373       C  0.99581718  0.36841799  0.98008259     0.04650
C1374       C  0.51122530  0.36185811  0.01401276    -0.09440
H1375       H  0.98868129  0.29483461  0.97801370     0.10240
H1376       H  0.96654157  0.35256450  0.91689636     0.07770
H1377       H  0.52660606  0.37780811  0.03925729     0.07620
C1378       C  0.64294178  0.18877431  0.94388340     0.04650
C1379       C  0.61838704  0.16268196  0.95543931    -0.11500
C1380       C  0.61523236  0.13729250  0.93774673     0.02150
C1381       C  0.63721750  0.13792519  0.90995909    -0.10020
C1382       C  0.66205199  0.16348962  0.89893954     0.04650
C1383       C  0.66429148  0.18876998  0.91450308    -0.09440
H1384       H  0.60192954  0.16197338  0.97877807     0.10240
H1385       H  0.63511116  0.11835160  0.89736418     0.07770
H1386       H  0.68325485  0.20847408  0.90504078     0.07620
C1387       C  0.83570266  0.49628627  0.88147510     0.04650
C1388       C  0.80999370  0.47769797  0.90630083    -0.11500
C1389       C  0.80869804  0.45666158  0.93751061     0.02150
C1390       C  0.83306880  0.45487562  0.94458280    -0.10020
C1391       C  0.85872543  0.47407077  0.92223795     0.04650
C1392       C  0.85981824  0.49416104  0.88981865    -0.09440
H1393       H  0.79145214  0.47982130  0.90199960     0.10240
H1394       H  0.83252745  0.43953204  0.97015552     0.07770
H1395       H  0.88010624  0.00956032  0.87380182     0.07620
C1396       C  0.86089674  0.30804682  0.00526938     0.04650
C1397       C  0.83671355  0.30068155  0.03399499    -0.11500
C1398       C  0.83478439  0.32146263  0.06050130     0.02150
C1399       C  0.85738091  0.34969589  0.05795372    -0.10020
C1400       C  0.88178432  0.35696923  0.02964538     0.04650
C1401       C  0.88385404  0.33569536  0.00572698    -0.09440
H1402       H  0.81848114  0.27942766  0.03216924     0.10240
H1403       H  0.85514560  0.36607123  0.07548580     0.07770
H1404       H  0.90246155  0.34102367  0.98346453     0.07620
C1405       C  0.89327498  0.47997711  0.98853704     0.25120
C1406       C  0.88532020  0.47584814  0.93793922    -0.22990
C1407       C  0.90405183  0.47610049  0.90225571     0.20030
C1408       C  0.93079370  0.48126404  0.91680281     0.25060
C1409       C  0.93891550  0.48603833  0.96707758    -0.22930
C1410       C  0.92001012  0.48493934  0.00305523     0.19960
F1411       F  0.92775285  0.48938513  0.05176672    -0.12890
F1412       F  0.87573216  0.48058051  0.02346764    -0.15250
F1413       F  0.94910365  0.48218268  0.88182976    -0.15250
F1414       F  0.89655486  0.47176356  0.85338971    -0.12890
C1415       C  0.56074002  0.07140625  0.00561606     0.25120
C1416       C  0.54288062  0.05489772  0.96622384    -0.22990
C1417       C  0.54811482  0.06614766  0.91812294     0.20030
C1418       C  0.57116909  0.09325793  0.90928340     0.25060
C1419       C  0.58931237  0.10971311  0.94846087    -0.22930
C1420       C  0.58378591  0.09866296  0.99682030     0.19960
F1421       F  0.60131792  0.11388787  0.03511675    -0.12890
F1422       F  0.55600311  0.06098855  0.05241161    -0.15250
F1423       F  0.57598361  0.10344375  0.86228945    -0.15250
F1424       F  0.53116954  0.05058222  0.87949513    -0.12890
C1425       C  0.56704481  0.00816489  0.01556493     0.25120
C1426       C  0.55237603  0.50751230  0.97230215    -0.22990
C1427       C  0.56359633  0.50755006  0.92557412     0.20030
C1428       C  0.58828496  0.50605822  0.92213153     0.25060
C1429       C  0.60224683  0.50511945  0.96558254    -0.22930
C1430       C  0.59207224  0.00740531  0.01228820     0.19960
F1431       F  0.60599142  0.00821931  0.05482650    -0.12890
F1432       F  0.55635291  0.00823461  0.06097332    -0.15250
F1433       F  0.59742052  0.50369425  0.87653887    -0.15250
F1434       F  0.54964819  0.50726886  0.88344733    -0.12890
C1435       C  0.50513161  0.43818173  0.93803565     0.25120
C1436       C  0.50419270  0.45029584  0.98339003    -0.22990
C1437       C  0.00190602  0.43608955  0.02775524     0.20030
C1438       C  0.99912680  0.40955241  0.02669475     0.25060
C1439       C  0.99935056  0.39695853  0.98113878    -0.22930
C1440       C  0.50312995  0.41197780  0.93690962     0.19960
F1441       F  0.50480550  0.40130098  0.89243980    -0.12890
F1442       F  0.50650874  0.45109096  0.89452654    -0.15250
F1443       F  0.99481008  0.39561240  0.07015912    -0.15250
F1444       F  0.00088366  0.44734073  0.07201771    -0.12890
C1445       C  0.93463051  0.42214347  0.95941280     0.25120
C1446       C  0.94804992  0.44166162  0.99799494    -0.22990
C1447       C  0.93853782  0.43400587  0.04702836     0.20030
C1448       C  0.91659200  0.40660547  0.05765103     0.25060
C1449       C  0.90362161  0.38668104  0.01912781    -0.22930
C1450       C  0.91239514  0.39503434  0.96970970     0.19960
F1451       F  0.89931731  0.37696308  0.93110708    -0.12890
F1452       F  0.94321968  0.42932169  0.91174043    -0.15250
F1453       F  0.90878937  0.39929691  0.10560066    -0.15250
F1454       F  0.95111298  0.45291285  0.08470275    -0.12890
C1455       C  0.47537258  0.07047404  0.04590879     0.25120
C1456       C  0.97031330  0.08440351  0.00709217    -0.22990
C1457       C  0.97111104  0.07644683  0.95762105     0.20030
C1458       C  0.97801201  0.05577585  0.94735593     0.25060
C1459       C  0.98470139  0.04328626  0.98636632    -0.22930
C1460       C  0.48286718  0.05047772  0.03558141     0.19960
F1461       F  0.48827755  0.03791508  0.07382505    -0.12890
F1462       F  0.47381071  0.07686074  0.09413283    -0.15250
F1463       F  0.97838403  0.04812384  0.89954853    -0.15250
F1464       F  0.96654106  0.08954773  0.91931984    -0.12890
C1465       C  0.62888592  0.24490942  0.99637780     0.25120
C1466       C  0.65516861  0.26337136  0.01969548    -0.22990
C1467       C  0.67810659  0.25902841  0.01268671     0.20030
C1468       C  0.67435980  0.23545513  0.98682592     0.25060
C1469       C  0.64757467  0.21575229  0.96590639    -0.22930
C1470       C  0.62516166  0.22142632  0.96933759     0.19960
F1471       F  0.59931192  0.20369957  0.94816254    -0.12890
F1472       F  0.60615319  0.24818060  0.00345436    -0.15250
F1473       F  0.69639974  0.23070087  0.98657233    -0.15250
F1474       F  0.70358966  0.27622151  0.03559042    -0.12890
C1475       C  0.79282808  0.32751501  0.06421043     0.25120
C1476       C  0.80728735  0.31467009  0.08306654    -0.22990
C1477       C  0.79540082  0.29587751  0.12312538     0.20030
C1478       C  0.77045531  0.29174152  0.14628890     0.25060
C1479       C  0.75709266  0.30601167  0.12888160    -0.22930
C1480       C  0.76801790  0.32318122  0.08677470     0.19960
F1481       F  0.75538983  0.33712182  0.06916137    -0.12890
F1482       F  0.80316546  0.34486864  0.02444432    -0.15250
F1483       F  0.76051821  0.27542327  0.18732398    -0.15250
F1484       F  0.80878866  0.28283419  0.14140000    -0.12890
C1485       C  0.53828731  0.30601420  0.10548092     0.25120
C1486       C  0.56549217  0.31541933  0.08487192    -0.22990
C1487       C  0.57265223  0.33049965  0.03982157     0.20030
C1488       C  0.55426212  0.33795330  0.01856892     0.25060
C1489       C  0.52800473  0.32973866  0.04052937    -0.22930
C1490       C  0.51960247  0.31298380  0.08306563     0.19960
F1491       F  0.49340148  0.30352829  0.10288121    -0.12890
F1492       F  0.52981355  0.29042795  0.14754376    -0.15250
F1493       F  0.56196677  0.35307863  0.97593939    -0.15250
F1494       F  0.59802257  0.33934912  0.01709653    -0.12890
C1495       C  0.56931546  0.20291668  0.10795016     0.25120
C1496       C  0.56520198  0.21407840  0.15200366    -0.22990
C1497       C  0.53687467  0.20513628  0.16635313     0.20030
C1498       C  0.51354444  0.18676286  0.13624966     0.25060
C1499       C  0.51781278  0.17665534  0.09126935    -0.22930
C1500       C  0.54594682  0.18458998  0.07783992     0.19960
F1501       F  0.55092759  0.17523125  0.03454515    -0.12890
F1502       F  0.59603660  0.21089339  0.09241349    -0.15250
F1503       F  0.98669805  0.17852816  0.15147955    -0.15250
F1504       F  0.53168634  0.21459497  0.20933131    -0.12890
C1505       C  0.77918692  0.44948128  0.01229773     0.25120
C1506       C  0.78386947  0.43835614  0.96884010    -0.22990
C1507       C  0.76979995  0.40900360  0.96258590     0.20030
C1508       C  0.75192776  0.39109249  0.99976493     0.25060
C1509       C  0.74865122  0.40227563  0.04443192    -0.22930
C1510       C  0.76181711  0.43155570  0.04997483     0.19960
F1511       F  0.75791848  0.44274788  0.09200893    -0.12890
F1512       F  0.79297979  0.47772608  0.01958981    -0.15250
F1513       F  0.73873355  0.36283898  0.99304104    -0.15250
F1514       F  0.77458432  0.39777468  0.92149339    -0.12890
C1515       C  0.67756875  0.46749928  0.05760984     0.25120
C1516       C  0.65210171  0.45748315  0.02986191    -0.22990
C1517       C  0.62899122  0.43021164  0.03820549     0.20030
C1518       C  0.63172385  0.41296815  0.07241398     0.25060
C1519       C  0.65759928  0.42251288  0.09792218    -0.22930
C1520       C  0.68033304  0.44997941  0.09124738     0.19960
F1521       F  0.70551254  0.45936967  0.11568586    -0.12890
F1522       F  0.69978089  0.49421926  0.05209614    -0.15250
F1523       F  0.60919819  0.38679594  0.08057782    -0.15250
F1524       F  0.60419577  0.41990221  0.01203869    -0.12890
C1525       C  0.76277352  0.34927947  0.41042889     0.25120
C1526       C  0.76558423  0.34782390  0.35849756    -0.22990
C1527       C  0.78718969  0.34350770  0.34037282     0.20030
C1528       C  0.80540019  0.34058537  0.37354107     0.25060
C1529       C  0.80205996  0.34158264  0.42521815    -0.22930
C1530       C  0.78060024  0.34592778  0.44321634     0.19960
F1531       F  0.77788532  0.34848013  0.49282307    -0.12890
F1532       F  0.74299457  0.35447538  0.42982401    -0.15250
F1533       F  0.82645631  0.33698398  0.35531718    -0.15250
F1534       F  0.79030880  0.34147303  0.29078792    -0.12890
C1535       C  0.68851972  0.24087458  0.37464938     0.25120
C1536       C  0.67283379  0.23622485  0.33036401    -0.22990
C1537       C  0.65941455  0.20929253  0.30795213     0.20030
C1538       C  0.66192020  0.18773688  0.32885835     0.25060
C1539       C  0.67749431  0.19232279  0.37301905    -0.22930
C1540       C  0.69081553  0.21907087  0.39581250     0.19960
F1541       F  0.70558192  0.22394036  0.43910949    -0.12890
F1542       F  0.70217865  0.26660414  0.39683625    -0.15250
F1543       F  0.64936671  0.16235550  0.30544703    -0.15250
F1544       F  0.64352255  0.20357496  0.26575314    -0.12890
C1545       C  0.57482087  0.34310840  0.35985758     0.25120
C1546       C  0.57990456  0.35582792  0.31300963    -0.22990
C1547       C  0.56137791  0.36412262  0.29464008     0.20030
C1548       C  0.53821332  0.36008339  0.32327391     0.25060
C1549       C  0.53364307  0.34820967  0.37132840    -0.22930
C1550       C  0.55248924  0.34004983  0.38937023     0.19960
F1551       F  0.54956819  0.32932237  0.43568699    -0.12890
F1552       F  0.59062583  0.33208307  0.37573750    -0.15250
F1553       F  0.51974412  0.36699262  0.30333003    -0.15250
F1554       F  0.56476414  0.37459853  0.24801532    -0.12890
C1555       C  0.78765483  0.43764580  0.31106511     0.25120
C1556       C  0.77024061  0.44582886  0.28614982    -0.22990
C1557       C  0.77574435  0.47322457  0.29360912     0.20030
C1558       C  0.79840343  0.49202328  0.32504857     0.25060
C1559       C  0.81531464  0.48336277  0.35075833    -0.22930
C1560       C  0.80951394  0.45591599  0.34309794     0.19960
F1561       F  0.82379584  0.44591872  0.36906249    -0.12890
F1562       F  0.78256797  0.41108677  0.30677568    -0.15470
F1563       F  0.80378281  0.51866632  0.33032922    -0.15250
F1564       F  0.75950017  0.48184498  0.27026195    -0.12890
C1565       C  0.64780734  0.39099755  0.43951109     0.25120
C1566       C  0.67277705  0.40002112  0.41152823    -0.22990
C1567       C  0.69331285  0.42904391  0.41190331     0.20030
C1568       C  0.68806717  0.44857730  0.43552153     0.25060
C1569       C  0.66195621  0.43986343  0.45963660    -0.22930
C1570       C  0.64225297  0.41065220  0.46270413     0.19960
F1571       F  0.61729695  0.40110313  0.48723515    -0.12890
F1572       F  0.62795014  0.36325950  0.44193398    -0.15250
F1573       F  0.70774467  0.47636267  0.43106966    -0.15250
F1574       F  0.71762369  0.43881774  0.38515885    -0.12890
C1575       C  0.55195117  0.20981364  0.40542474     0.25120
C1576       C  0.56081376  0.21494211  0.45538092    -0.22990
C1577       C  0.58046151  0.24233958  0.47145305     0.20030
C1578       C  0.59244769  0.26417920  0.43723414     0.25060
C1579       C  0.58479532  0.25881650  0.38649051    -0.22930
C1580       C  0.56379713  0.23158379  0.37117831     0.19960
F1581       F  0.55617681  0.22552921  0.32256114    -0.12890
F1582       F  0.53186533  0.18359408  0.38978189    -0.15250
F1583       F  0.61235174  0.29036571  0.45334825    -0.15250
F1584       F  0.58871337  0.24769848  0.51991651    -0.12890
C1585       C  0.94615886  0.44278909  0.52045209     0.25120
C1586       C  0.95014218  0.45874218  0.47748267    -0.22990
C1587       C  0.92686106  0.44984150  0.44522044     0.20030
C1588       C  0.90042597  0.42610264  0.45611271     0.25060
C1589       C  0.89763135  0.40678885  0.49388950    -0.22930
C1590       C  0.92125483  0.41646568  0.52700237     0.19960
F1591       F  0.92112051  0.40106978  0.56596909    -0.12890
F1592       F  0.96692222  0.45242302  0.55584975    -0.15250
F1593       F  0.87767245  0.42345606  0.43057071    -0.15250
F1594       F  0.92949819  0.46384234  0.40252991    -0.12890
C1595       C  0.52319495  0.08145386  0.43377536     0.25120
C1596       C  0.51864199  0.06241235  0.47165810    -0.22990
C1597       C  0.51763016  0.06963090  0.52126139     0.20030
C1598       C  0.52230169  0.09608744  0.53329440     0.25060
C1599       C  0.52634710  0.11524600  0.49551407    -0.22930
C1600       C  0.52635384  0.10748074  0.44545275     0.19960
F1601       F  0.52809864  0.12444487  0.40769436    -0.12890
F1602       F  0.52367126  0.07449293  0.38554134    -0.15250
F1603       F  0.52299814  0.10296633  0.58198676    -0.15250
F1604       F  0.51250858  0.05102067  0.55820576    -0.12890
C1605       C  0.61065842  0.09363856  0.48527654     0.25120
C1606       C  0.62516206  0.09603433  0.44088519    -0.22990
C1607       C  0.61048704  0.07667075  0.40226321     0.20030
C1608       C  0.58168249  0.05567957  0.40750037     0.25060
C1609       C  0.56697554  0.05321529  0.45186052    -0.22930
C1610       C  0.58207126  0.07206263  0.49118049     0.19960
F1611       F  0.56940432  0.06943485  0.53560428    -0.12890
F1612       F  0.62395136  0.11282454  0.52232209    -0.15250
F1613       F  0.56796091  0.03785766  0.36885274    -0.15250
F1614       F  0.62389179  0.07868428  0.35877204    -0.12890
C1615       C  0.91669363  0.01229278  0.48919827     0.25120
C1616       C  0.90961021  0.01799240  0.44183075    -0.22990
C1617       C  0.92865300  0.02357748  0.40245862     0.20030
C1618       C  0.95366945  0.02273296  0.40992659     0.25060
C1619       C  0.96015486  0.01609344  0.45679625    -0.22930
C1620       C  0.94171249  0.01142723  0.49655723     0.19960
F1621       F  0.94749163  0.00511780  0.54219026    -0.12890
F1622       F  0.89875114  0.00634382  0.52806196    -0.15250
F1623       F  0.97060923  0.02646908  0.37043877    -0.15250
F1624       F  0.92300508  0.02973524  0.35657688    -0.12890
C1625       C  0.58460218  0.47834877  0.42984595     0.25120
C1626       C  0.59814336  0.98281096  0.47651924    -0.22990
C1627       C  0.58830328  0.99220864  0.51638022     0.20030
C1628       C  0.56776992  0.99961919  0.50878420     0.25060
C1629       C  0.55476561  0.99588256  0.46217200    -0.22930
C1630       C  0.56270200  0.48440851  0.42296559     0.19960
F1631       F  0.54964091  0.47961311  0.37792136    -0.12890
F1632       F  0.59328598  0.46928111  0.39058001    -0.15250
F1633       F  0.55987183  0.00976555  0.54763323    -0.15250
F1634       F  0.59922345  0.99496122  0.56296399    -0.12890
C1635       C  0.98158655  0.40879663  0.40614913     0.25120
C1636       C  0.98873755  0.39691241  0.44527964    -0.22990
C1637       C  0.49918265  0.41137781  0.49047980     0.20030
C1638       C  0.50317795  0.43797879  0.49619342     0.25060
C1639       C  0.99661026  0.45019471  0.45677024    -0.22930
C1640       C  0.98535330  0.43539891  0.41203004     0.19960
F1641       F  0.97903002  0.44720861  0.37371854    -0.12890
F1642       F  0.97158467  0.39486587  0.36223475    -0.15250
F1643       F  0.51393805  0.45199121  0.53977316    -0.15250
F1644       F  0.50682311  0.40025394  0.52811761    -0.12890
C1645       C  0.72105421  0.14846725  0.86988974     0.25120
C1646       C  0.73310734  0.16437454  0.82666054    -0.22990
C1647       C  0.72147255  0.17996971  0.80726654     0.20030
C1648       C  0.69844994  0.17973068  0.83065454     0.25060
C1649       C  0.68632072  0.16365953  0.87359409    -0.22930
C1650       C  0.69786283  0.14801506  0.89292661     0.19960
F1651       F  0.68703178  0.13268494  0.93488170    -0.12890
F1652       F  0.73131923  0.13283659  0.88940628    -0.15250
F1653       F  0.68770455  0.19489421  0.81084636    -0.15250
F1654       F  0.73278345  0.19599539  0.76618300    -0.12890
C1655       C  0.86032931  0.27891839  0.87852804     0.25120
C1656       C  0.85773479  0.25306503  0.89012145    -0.22990
C1657       C  0.85696660  0.24563585  0.94057289     0.20030
C1658       C  0.85803869  0.26347378  0.97842334     0.25060
C1659       C  0.86007392  0.28894645  0.96643980    -0.22930
C1660       C  0.86130732  0.29657734  0.91633387     0.19960
F1661       F  0.86233023  0.32077242  0.90391949    -0.12890
F1662       F  0.86044540  0.28655251  0.83059905    -0.15250
F1663       F  0.85722366  0.25599036  0.02664955    -0.15250
F1664       F  0.85521595  0.22113813  0.95336802    -0.12890
C1665       C  0.96945610  0.18307778  0.64659088     0.25120
C1666       C  0.94234552  0.17000471  0.62340532    -0.22990
C1667       C  0.93810593  0.15598309  0.57775122     0.20030
C1668       C  0.96041674  0.15483514  0.55577942     0.25060
C1669       C  0.98730139  0.16777766  0.57891338    -0.22930
C1670       C  0.99192000  0.18212439  0.62412739     0.19960
F1671       F  0.51812391  0.19524639  0.64616966    -0.12890
F1672       F  0.97436758  0.19728535  0.69024460    -0.15250
F1673       F  0.95603883  0.14168861  0.51109828    -0.15250
F1674       F  0.91222702  0.14288193  0.55474782    -0.12890
C1675       C  0.93844129  0.28969005  0.58947304     0.25120
C1676       C  0.92015003  0.26166460  0.57397527    -0.22990
C1677       C  0.92200385  0.25434976  0.52408053     0.20030
C1678       C  0.94081736  0.27456924  0.49070328     0.25060
C1679       C  0.95831453  0.30253142  0.50599708    -0.22930
C1680       C  0.95737871  0.30979167  0.55597469     0.19960
F1681       F  0.97466011  0.33662359  0.57232221    -0.12890
F1682       F  0.93800239  0.29788960  0.63690215    -0.15250
F1683       F  0.94079600  0.26702346  0.44262847    -0.15250
F1684       F  0.90511505  0.22771417  0.50658148    -0.12890
C1685       C  0.92816905  0.25225723  0.87884915     0.25120
C1686       C  0.94037491  0.25751525  0.83129610    -0.22990
C1687       C  0.96269160  0.28474551  0.81984835     0.20030
C1688       C  0.97313822  0.30613946  0.85583945     0.25060
C1689       C  0.96108860  0.30066905  0.90346492    -0.22930
C1690       C  0.93864442  0.27354194  0.91476295     0.19960
F1691       F  0.92681131  0.26777544  0.96067694    -0.12890
F1692       F  0.90470977  0.22703328  0.88942054    -0.15250
F1693       F  0.99553017  0.33198117  0.84473350    -0.15250
F1694       F  0.97394511  0.29066311  0.77352091    -0.12890
C1695       C  0.92140764  0.17809321  0.93209302     0.25120
C1696       C  0.89187519  0.15830283  0.92732870    -0.22990
C1697       C  0.88054373  0.13371235  0.95605389     0.20030
C1698       C  0.89870773  0.12818898  0.98543283     0.25060
C1699       C  0.92853173  0.14741418  0.98743131    -0.22930
C1700       C  0.93930879  0.17287646  0.96176149     0.19960
F1701       F  0.96783185  0.19176606  0.96127506    -0.12890
F1702       F  0.93372944  0.20148473  0.90362531    -0.15250
F1703       F  0.88726609  0.10360581  0.01055777    -0.15250
F1704       F  0.85234249  0.11403221  0.95270217    -0.12890
C1705       C  0.80373750  0.27130976  0.63227888     0.25120
C1706       C  0.82431781  0.26323158  0.63339363    -0.22990
C1707       C  0.84896304  0.27843400  0.60412496     0.20030
C1708       C  0.85337287  0.30119273  0.57533336     0.25060
C1709       C  0.83318600  0.30964201  0.57423743    -0.22930
C1710       C  0.80809681  0.29430339  0.60279436     0.19960
F1711       F  0.78806209  0.30184452  0.60270481    -0.12890
F1712       F  0.77994088  0.25753415  0.66047493    -0.15250
F1713       F  0.87703242  0.31425353  0.54653599    -0.15250
F1714       F  0.86878157  0.27070906  0.60221843    -0.12890
C1715       C  0.76738549  0.14362138  0.48821914     0.25120
C1716       C  0.78258545  0.16843491  0.51666794    -0.22990
C1717       C  0.77456728  0.18872485  0.51345649     0.20030
C1718       C  0.75002475  0.18310726  0.48732724     0.25060
C1719       C  0.73322386  0.15730818  0.46199519    -0.22930
C1720       C  0.74290054  0.13812476  0.46087154     0.19960
F1721       F  0.72805732  0.11363141  0.43501524    -0.12890
F1722       F  0.77441872  0.12348525  0.49112882    -0.15250
F1723       F  0.74132497  0.20199781  0.49090349    -0.15250
F1724       F  0.78858728  0.21271524  0.54105835    -0.12890
C1725       C  0.84110901  0.06487034  0.84727637     0.25120
C1726       C  0.85317635  0.06984467  0.79966557    -0.22990
C1727       C  0.85803264  0.04975088  0.77768898     0.20030
C1728       C  0.85153823  0.02529947  0.80368914     0.25060
C1729       C  0.83942116  0.02033721  0.85155295    -0.22930
C1730       C  0.83439413  0.04044729  0.87308619     0.19960
F1731       F  0.82351027  0.03673026  0.91956611    -0.12890
F1732       F  0.83454136  0.08319849  0.86781287    -0.15250
F1733       F  0.85668419  0.00623124  0.78191965    -0.15250
F1734       F  0.86833428  0.05348607  0.73076890    -0.12890
C1735       C  0.73196743  0.04187800  0.83694518     0.25120
C1736       C  0.74911439  0.06946038  0.85617037    -0.22990
C1737       C  0.74105075  0.07657877  0.90118316     0.20030
C1738       C  0.71565002  0.05746607  0.92404755     0.25060
C1739       C  0.69816976  0.03072812  0.90342730    -0.22930
C1740       C  0.70671249  0.02262910  0.86072319     0.19960
F1741       F  0.69025405  0.99632947  0.84151787    -0.12890
F1742       F  0.73915478  0.03356891  0.79472652    -0.15250
F1743       F  0.70804310  0.06502646  0.96669478    -0.15250
F1744       F  0.75725102  0.10223371  0.92293087    -0.12890
C1745       C  0.69601787  0.02302841  0.60616020     0.25120
C1746       C  0.69156789  0.02945193  0.55783791    -0.22990
C1747       C  0.70152435  0.05776510  0.54590616     0.20030
C1748       C  0.71657431  0.07925814  0.58106673     0.25060
C1749       C  0.72224794  0.07294142  0.62872387    -0.22930
C1750       C  0.71104666  0.04445162  0.64123324     0.19960
F1751       F  0.71547280  0.03739204  0.68729492    -0.12890
F1752       F  0.68524821  0.99588525  0.61980109    -0.15250
F1753       F  0.72701344  0.10633558  0.56754016    -0.15250
F1754       F  0.69699405  0.06461790  0.49977067    -0.12890
C1755       C  0.82256234  0.03564314  0.53464962     0.25120
C1756       C  0.84187149  0.04805447  0.49547153    -0.22990
C1757       C  0.85446627  0.07677940  0.48671013     0.20030
C1758       C  0.84865711  0.09333076  0.51761014     0.25060
C1759       C  0.83077990  0.08157111  0.55950519    -0.22930
C1760       C  0.81719278  0.05229318  0.56682751     0.19960
F1761       F  0.79896854  0.03975671  0.60516885    -0.12890
F1762       F  0.80944008  0.00752970  0.54229007    -0.15250
F1763       F  0.86120291  0.12104414  0.50653790    -0.15250
F1764       F  0.87257868  0.08886611  0.44800400    -0.12890
O1765       O  0.84114658  0.62645181  0.58493102    -0.84960
O1766       O  0.78667306  0.61645474  0.84627340    -0.85130
O1767       O  0.83005409  0.58491054  0.74744337    -0.86800
O1768       O  0.76225169  0.58734184  0.67837105    -0.85560
O1769       O  0.75048920  0.62064179  0.66067477    -0.85150
O1770       O  0.87498470  0.61794557  0.77536395    -0.86520
O1771       O  0.77765271  0.58495934  0.78355619    -0.84990
O1772       O  0.81629827  0.59024828  0.63871848    -0.84580
Zr1773     Zr  0.80889610  0.61034850  0.71483770     2.84310
O1774       O  0.79143960  0.63727989  0.74984876    -1.06560
O1775       O  0.85538425  0.63941272  0.68741779    -1.07290
C1776       C  0.82873107  0.60038548  0.59665562     1.08140
C1777       C  0.77308207  0.59155645  0.82711690     1.08090
C1778       C  0.85359697  0.59235113  0.77045471     1.11070
C1779       C  0.74585854  0.59513122  0.65923546     1.08850
H1780       H  0.83605312  0.62333022  0.80891637     0.34410
O1781       O  0.83713767  0.63577944  0.78299843    -1.27510
H1782       H  0.79714533  0.62951865  0.62688258     0.34080
O1783       O  0.80823504  0.64031254  0.65533505    -1.29190
O1784       O  0.83862481  0.70682048  0.86163917    -0.84960
O1785       O  0.88610485  0.71459293  0.59235407    -0.86460
O1786       O  0.89079548  0.66159926  0.84188226    -0.85040
O1787       O  0.75848318  0.66634892  0.75377154    -0.85080
O1788       O  0.78421596  0.66829591  0.60199805    -0.84800
O1789       O  0.91788473  0.66943302  0.69519994    -0.84600
O1790       O  0.91427305  0.74638431  0.75818291    -0.84970
O1791       O  0.84551788  0.74775161  0.69063465    -0.84440
O1792       O  0.91742155  0.71122933  0.79602305    -0.85500
O1793       O  0.80058093  0.71488686  0.66283563    -0.84660
O1794       O  0.85274354  0.65934683  0.88246347    -0.85060
O1795       O  0.89907431  0.66986195  0.61875655    -0.84780
O1796       O  0.82166746  0.66908983  0.56166421    -0.84430
O1797       O  0.77614894  0.66316305  0.82974461    -0.84840
O1798       O  0.86404298  0.74266714  0.80667606    -0.85130
O1799       O  0.89645339  0.74725392  0.65337217    -0.86470
Zr1800     Zr  0.82075137  0.66312257  0.81763219     2.83100
Zr1801     Zr  0.85436308  0.66950569  0.62743929     2.83500
Zr1802     Zr  0.88371854  0.66544325  0.75558650     2.84090
Zr1803     Zr  0.79054066  0.66735104  0.68970029     2.83360
Zr1804     Zr  0.86659514  0.72279483  0.72642166     2.84220
O1805       O  0.83698022  0.69656180  0.66070863    -1.07040
O1806       O  0.86630200  0.69266894  0.78730053    -1.06540
C1807       C  0.85345031  0.73297117  0.85012429     1.08120
C1808       C  0.89958362  0.73993071  0.60902044     1.10730
C1809       C  0.87695902  0.65971113  0.88148269     1.08290
C1810       C  0.75751581  0.66460792  0.80177720     1.08650
C1811       C  0.79761069  0.66868830  0.56262808     1.08230
C1812       C  0.91826214  0.66994079  0.64735300     1.07780
C1813       C  0.92420994  0.73723244  0.79145139     1.08210
C1814       C  0.82254376  0.74043050  0.66558884     1.07720
H1815       H  0.90382330  0.70791627  0.68351262     0.34400
O1816       O  0.88438125  0.69573592  0.69414791    -1.28140
H1817       H  0.81335508  0.70530393  0.77060515     0.34420
O1818       O  0.82016578  0.69374769  0.75676160    -1.29520
C1819       C  0.97925559  0.98343823  0.46574370     0.03810
C1820       C  0.00242065  0.97901085  0.46114786     0.03810
C1821       C  0.53087995  0.50157092  0.45736262     0.03810
C1822       C  0.53660692  0.52945592  0.45745315     0.03810
C1823       C  0.51328647  0.53408325  0.46061535     0.03810
C1824       C  0.98456486  0.51115426  0.46205150     0.03810
C1825       C  0.51083440  0.66837035  0.55250544     0.04650
C1826       C  0.51021011  0.64328117  0.54297158    -0.11500
C1827       C  0.52888535  0.64244587  0.50832347     0.02150
C1828       C  0.54788156  0.66711447  0.48290093    -0.10020
C1829       C  0.54746190  0.69187331  0.49097201     0.04650
C1830       C  0.52980660  0.69273868  0.52723068    -0.09440
H1831       H  0.49385659  0.62411144  0.56020823     0.10240
H1832       H  0.56197988  0.66684760  0.45501413     0.07770
H1833       H  0.52854665  0.71151075  0.53183074     0.07620
C1834       C  0.65551859  0.96150785  0.47972111     0.04650
C1835       C  0.67619583  0.48424914  0.50916565    -0.11500
C1836       C  0.67213581  0.50643962  0.52326529     0.02150
C1837       C  0.64748411  0.50583730  0.50813591    -0.10020
C1838       C  0.62528464  0.48262333  0.48335411     0.04650
C1839       C  0.62954921  0.96056135  0.46798492    -0.09440
H1840       H  0.69552113  0.48481564  0.52076964     0.10240
H1841       H  0.64486029  0.52328731  0.51848911     0.07770
H1842       H  0.61296527  0.94297343  0.44700509     0.07620
C1843       C  0.84869894  0.53129067  0.46242635     0.04650
C1844       C  0.87491206  0.53259172  0.46720213    -0.11500
C1845       C  0.88243259  0.51798534  0.43389127     0.02150
C1846       C  0.86352414  0.50293668  0.39417317    -0.10020
C1847       C  0.83693422  0.50152006  0.38916350     0.04650
C1848       C  0.82977158  0.51562360  0.42408750    -0.09440
H1849       H  0.88950778  0.54514169  0.49686749     0.10240
H1850       H  0.86921365  0.99181034  0.36794364     0.07770
H1851       H  0.80929562  0.51432740  0.42188870     0.07620
C1852       C  0.51090570  0.84669079  0.40378949     0.04650
C1853       C  0.99416111  0.82372255  0.43561509    -0.11500
C1854       C  0.97486208  0.82479608  0.46910398     0.02150
C1855       C  0.97147051  0.84806226  0.46860513    -0.10020
C1856       C  0.98818899  0.87071106  0.43800208     0.04650
C1857       C  0.50778368  0.87014233  0.40600622    -0.09440
H1858       H  0.99655453  0.80552843  0.43526693     0.10240
H1859       H  0.95652260  0.84913674  0.49358851     0.07770
H1860       H  0.52181811  0.88883572  0.38493070     0.07620
C1861       C  0.70546690  0.65077818  0.43878147     0.04650
C1862       C  0.67950390  0.62535134  0.44821283    -0.11500
C1863       C  0.65324312  0.62166615  0.43106274     0.02150
C1864       C  0.65307637  0.64354764  0.40576263    -0.10020
C1865       C  0.67850660  0.66876742  0.39641159     0.04650
C1866       C  0.70454822  0.67184973  0.41140617    -0.09440
H1867       H  0.67958667  0.60901701  0.47000591     0.10240
H1868       H  0.63282507  0.64118762  0.39460524     0.07770
H1869       H  0.72419627  0.69121797  0.40303057     0.07620
C1870       C  0.83756054  0.83228945  0.53872054     0.04650
C1871       C  0.86353537  0.85873258  0.53802109    -0.11500
C1872       C  0.87069930  0.87751188  0.49711028     0.02150
C1873       C  0.85143131  0.86748296  0.45664043    -0.10020
C1874       C  0.82405061  0.84404014  0.46050575     0.04650
C1875       C  0.81714010  0.82619748  0.50134955    -0.09440
H1876       H  0.87760009  0.86357693  0.56939709     0.10240
H1877       H  0.85674706  0.87809437  0.42152636     0.07770
H1878       H  0.79638547  0.80708932  0.50277646     0.07620
O1879       O  0.62947180  0.79439418  0.36053716    -0.84960
O1880       O  0.61223155  0.82329814  0.09226763    -0.85130
O1881       O  0.58999317  0.82801028  0.26441353    -0.86800
O1882       O  0.58354877  0.75605660  0.19735836    -0.85560
O1883       O  0.61543881  0.74323599  0.17311784    -0.85150
O1884       O  0.62548059  0.87433318  0.27435861    -0.86520
O1885       O  0.58243517  0.80529790  0.15883089    -0.84990
O1886       O  0.59175565  0.77940220  0.30639738    -0.84580
Zr1887     Zr  0.61062747  0.80355609  0.22737779     2.84310
O1888       O  0.63374509  0.79710100  0.16062842    -1.06560
O1889       O  0.64303745  0.83798974  0.28202777    -1.07290
C1890       C  0.60285251  0.77943620  0.34903793     1.08140
C1891       C  0.58783882  0.81371705  0.11341705     1.08090
C1892       C  0.59972034  0.85314865  0.28035198     1.11070
C1893       C  0.58972450  0.73891071  0.17688401     1.08850
H1894       H  0.62510437  0.85310525  0.17595838     0.34410
O1895       O  0.63756813  0.84662910  0.18704962    -1.27510
H1896       H  0.62906328  0.77011519  0.27333014     0.34080
O1897       O  0.64026300  0.78821382  0.25776996    -1.29190
O1898       O  0.70315120  0.86858666  0.07226098    -0.84960
O1899       O  0.71917733  0.83822714  0.34481869    -0.86460
O1900       O  0.66694571  0.90758186  0.17382415    -0.85040
O1901       O  0.65972518  0.77018642  0.10463815    -0.85080
O1902       O  0.66856421  0.75679954  0.25766335    -0.84800
O1903       O  0.67374296  0.89427230  0.32670689    -0.84600
O1904       O  0.75181814  0.90761326  0.23190994    -0.84970
O1905       O  0.74519535  0.83424838  0.17290809    -0.84440
O1906       O  0.72060616  0.92060970  0.26001405    -0.85500
O1907       O  0.71023165  0.78775348  0.16333094    -0.84660
O1908       O  0.65857135  0.88124726  0.10246669    -0.85060
O1909       O  0.67232128  0.85901374  0.37351587    -0.84780
O1910       O  0.67339947  0.77981941  0.33158373    -0.84430
O1911       O  0.65554471  0.80295413  0.05943922    -0.84840
O1912       O  0.74112051  0.88379278  0.12642881    -0.85130
O1913       O  0.74983489  0.85500047  0.27885942    -0.86470
Zr1914     Zr  0.66058440  0.83953264  0.11987705     2.83100
Zr1915     Zr  0.67216332  0.82292026  0.31445190     2.83500
Zr1916     Zr  0.67100730  0.88096593  0.24171966     2.84090
Zr1917     Zr  0.66458211  0.78311222  0.19064673     2.83360
Zr1918     Zr  0.72397925  0.85929270  0.20664950     2.84220
O1919       O  0.69630314  0.81684622  0.24773057    -1.07040
O1920       O  0.69413875  0.87425646  0.17481857    -1.06540
C1921       C  0.72986718  0.88351071  0.08362856     1.08120
C1922       C  0.74372315  0.84738353  0.32492182     1.10730
C1923       C  0.66150861  0.90263396  0.12688193     1.08290
C1924       C  0.65660942  0.78014315  0.06366279     1.08650
C1925       C  0.67157485  0.75927154  0.30524724     1.08230
C1926       C  0.67306432  0.88290315  0.36847539     1.07780
C1927       C  0.74603328  0.92420200  0.25563299     1.08210
C1928       C  0.73612028  0.80889219  0.15843928     1.07720
H1929       H  0.71350126  0.87777358  0.29865025     0.34400
O1930       O  0.70029379  0.86523953  0.27369654    -1.28140
H1931       H  0.70144298  0.82424273  0.12162442     0.34420
O1932       O  0.69159590  0.82591230  0.14988755    -1.29520
C1933       C  0.94898876  0.64048652  0.01209073     0.04650
C1934       C  0.97144715  0.66049311  0.04312141    -0.11500
C1935       C  0.99302657  0.65574675  0.06063538     0.02150
C1936       C  0.99153457  0.63061784  0.04835528    -0.10020
C1937       C  0.96937433  0.61013022  0.01885638     0.04650
C1938       C  0.94816222  0.61515790  0.00036166    -0.09440
H1939       H  0.97263707  0.68009252  0.05234009     0.10240
H1940       H  0.50817336  0.62704038  0.06174225     0.07770
H1941       H  0.93152701  0.59975314  0.97607512     0.07620
C1942       C  0.99057386  0.52030033  0.97768820     0.03810
C1943       C  0.96767255  0.99243188  0.98067199     0.03810
C1944       C  0.97246734  0.97017575  0.98733893     0.03810
C1945       C  0.50030433  0.97502516  0.98358683     0.03810
C1946       C  0.52341176  0.00280397  0.97626414     0.03810
C1947       C  0.51875724  0.52570600  0.97465738     0.03810
C1948       C  0.64977856  0.97565345  0.99275240     0.04650
C1949       C  0.67196263  0.99065564  0.95923712    -0.11500
C1950       C  0.67195992  0.51104065  0.92916169     0.02150
C1951       C  0.64913764  0.51576007  0.93072056    -0.10020
C1952       C  0.62616827  0.99996890  0.96257424     0.04650
C1953       C  0.62656041  0.97979805  0.99333243    -0.09440
H1954       H  0.69011512  0.98770408  0.95860291     0.10240
H1955       H  0.64988791  0.53245491  0.90872428     0.07770
H1956       H  0.60922105  0.96798072  0.01896192     0.07620
C1957       C  0.50803927  0.83515267  0.01366683     0.04650
C1958       C  0.98979321  0.81493555  0.97955578    -0.11500
C1959       C  0.97551877  0.82133018  0.94384216     0.02150
C1960       C  0.97810157  0.84792621  0.94432897    -0.10020
C1961       C  0.99581719  0.86841799  0.98008260     0.04650
C1962       C  0.51122530  0.86185811  0.01401275    -0.09440
H1963       H  0.98868130  0.79483461  0.97801371     0.10240
H1964       H  0.96654157  0.85256451  0.91689637     0.07770
H1965       H  0.52660606  0.87780811  0.03925729     0.07620
C1966       C  0.64294178  0.68877430  0.94388341     0.04650
C1967       C  0.61838704  0.66268195  0.95543932    -0.11500
C1968       C  0.61523237  0.63729249  0.93774675     0.02150
C1969       C  0.63721750  0.63792518  0.90995911    -0.10020
C1970       C  0.66205200  0.66348961  0.89893955     0.04650
C1971       C  0.66429149  0.68876998  0.91450308    -0.09440
H1972       H  0.60192954  0.66197338  0.97877808     0.10240
H1973       H  0.63511117  0.61835159  0.89736421     0.07770
H1974       H  0.68325485  0.70847407  0.90504079     0.07620
C1975       C  0.83570267  0.99628628  0.88147509     0.04650
C1976       C  0.80999370  0.97769797  0.90630082    -0.11500
C1977       C  0.80869804  0.95666158  0.93751060     0.02150
C1978       C  0.83306880  0.95487562  0.94458278    -0.10020
C1979       C  0.85872543  0.97407078  0.92223794     0.04650
C1980       C  0.85981824  0.99416105  0.88981864    -0.09440
H1981       H  0.79145214  0.97982130  0.90199959     0.10240
H1982       H  0.83252745  0.93953204  0.97015551     0.07770
H1983       H  0.88010624  0.50956031  0.87380182     0.07620
C1984       C  0.86089674  0.80804682  0.00526939     0.04650
C1985       C  0.83671355  0.80068155  0.03399500    -0.11500
C1986       C  0.83478440  0.82146264  0.06050131     0.02150
C1987       C  0.85738092  0.84969589  0.05795373    -0.10020
C1988       C  0.88178433  0.85696922  0.02964538     0.04650
C1989       C  0.88385404  0.83569536  0.00572699    -0.09440
H1990       H  0.81848114  0.77942767  0.03216925     0.10240
H1991       H  0.85514561  0.86607123  0.07548581     0.07770
H1992       H  0.90246155  0.84102366  0.98346453     0.07620
C1993       C  0.89327498  0.97997710  0.98853703     0.25120
C1994       C  0.88532021  0.97584814  0.93793921    -0.22990
C1995       C  0.90405183  0.97610049  0.90225570     0.20030
C1996       C  0.93079370  0.98126403  0.91680280     0.25060
C1997       C  0.93891550  0.98603833  0.96707757    -0.22930
C1998       C  0.92001012  0.98493934  0.00305523     0.19960
F1999       F  0.92775285  0.98938512  0.05176671    -0.12890
F2000       F  0.87573216  0.98058050  0.02346763    -0.15250
F2001       F  0.94910365  0.98218267  0.88182975    -0.15250
F2002       F  0.89655486  0.97176357  0.85338970    -0.12890
C2003       C  0.56074002  0.57140624  0.00561609     0.25120
C2004       C  0.54288062  0.55489771  0.96622386    -0.22990
C2005       C  0.54811482  0.56614766  0.91812296     0.20030
C2006       C  0.57116909  0.59325792  0.90928342     0.25060
C2007       C  0.58931237  0.60971311  0.94846088    -0.22930
C2008       C  0.58378591  0.59866295  0.99682032     0.19960
F2009       F  0.60131792  0.61388786  0.03511677    -0.12890
F2010       F  0.55600311  0.56098855  0.05241163    -0.15250
F2011       F  0.57598361  0.60344374  0.86228946    -0.15250
F2012       F  0.53116954  0.55058222  0.87949515    -0.12890
C2013       C  0.56704481  0.50816488  0.01556496     0.25120
C2014       C  0.55237604  0.00751231  0.97230212    -0.22990
C2015       C  0.56359633  0.00755006  0.92557409     0.20030
C2016       C  0.58828496  0.00605822  0.92213150     0.25060
C2017       C  0.60224683  0.00511945  0.96558251    -0.22930
C2018       C  0.59207224  0.50740530  0.01228823     0.19960
F2019       F  0.60599142  0.50821931  0.05482653    -0.12890
F2020       F  0.55635291  0.50823460  0.06097335    -0.15250
F2021       F  0.59742052  0.00369424  0.87653884    -0.15250
F2022       F  0.54964819  0.00726886  0.88344730    -0.12890
C2023       C  0.50513162  0.93818173  0.93803563     0.25120
C2024       C  0.50419271  0.95029584  0.98339000    -0.22990
C2025       C  0.00190603  0.93608956  0.02775524     0.20030
C2026       C  0.99912681  0.90955241  0.02669476     0.25060
C2027       C  0.99935057  0.89695853  0.98113879    -0.22930
C2028       C  0.50312995  0.91197780  0.93690960     0.19960
F2029       F  0.50480551  0.90130099  0.89243978    -0.12890
F2030       F  0.50650874  0.95109096  0.89452651    -0.15250
F2031       F  0.99481009  0.89561241  0.07015913    -0.15250
F2032       F  0.00088367  0.94734073  0.07201771    -0.12890
C2033       C  0.93463052  0.92214347  0.95941280     0.25120
C2034       C  0.94804992  0.94166162  0.99799494    -0.22990
C2035       C  0.93853782  0.93400587  0.04702836     0.20030
C2036       C  0.91659201  0.90660547  0.05765104     0.25060
C2037       C  0.90362162  0.88668104  0.01912782    -0.22930
C2038       C  0.91239514  0.89503433  0.96970971     0.19960
F2039       F  0.89931732  0.87696307  0.93110709    -0.12890
F2040       F  0.94321968  0.92932169  0.91174043    -0.15250
F2041       F  0.90878938  0.89929691  0.10560067    -0.15250
F2042       F  0.95111299  0.95291285  0.08470275    -0.12890
C2043       C  0.47537258  0.57047404  0.04590878     0.25120
C2044       C  0.97031331  0.58440352  0.00709217    -0.22990
C2045       C  0.97111105  0.57644684  0.95762106     0.20030
C2046       C  0.97801201  0.55577585  0.94735594     0.25060
C2047       C  0.98470140  0.54328627  0.98636633    -0.22930
C2048       C  0.48286718  0.55047772  0.03558141     0.19960
F2049       F  0.48827754  0.53791508  0.07382506    -0.12890
F2050       F  0.47381071  0.57686074  0.09413282    -0.15250
F2051       F  0.97838403  0.54812384  0.89954853    -0.15250
F2052       F  0.96654107  0.58954774  0.91931984    -0.12890
C2053       C  0.62888593  0.74490942  0.99637779     0.25120
C2054       C  0.65516861  0.76337136  0.01969546    -0.22990
C2055       C  0.67810659  0.75902841  0.01268669     0.20030
C2056       C  0.67435981  0.73545513  0.98682591     0.25060
C2057       C  0.64757468  0.71575229  0.96590638    -0.22930
C2058       C  0.62516167  0.72142631  0.96933758     0.19960
F2059       F  0.59931193  0.70369956  0.94816254    -0.12890
F2060       F  0.60615318  0.74818059  0.00345435    -0.15250
F2061       F  0.69639974  0.73070087  0.98657232    -0.15250
F2062       F  0.70358966  0.77622151  0.03559040    -0.12890
C2063       C  0.79282809  0.82751502  0.06421043     0.25120
C2064       C  0.80728736  0.81467010  0.08306655    -0.22990
C2065       C  0.79540082  0.79587751  0.12312538     0.20030
C2066       C  0.77045531  0.79174153  0.14628889     0.25060
C2067       C  0.75709267  0.80601168  0.12888159    -0.22930
C2068       C  0.76801791  0.82318124  0.08677470     0.19960
F2069       F  0.75538985  0.83712184  0.06916137    -0.12890
F2070       F  0.80316549  0.84486866  0.02444433    -0.15250
F2071       F  0.76051820  0.77542327  0.18732397    -0.15250
F2072       F  0.80878865  0.78283419  0.14140000    -0.12890
C2073       C  0.53828730  0.80601420  0.10548092     0.25120
C2074       C  0.56549216  0.81541932  0.08487192    -0.22990
C2075       C  0.57265222  0.83049964  0.03982157     0.20030
C2076       C  0.55426211  0.83795329  0.01856891     0.25060
C2077       C  0.52800472  0.82973866  0.04052936    -0.22930
C2078       C  0.51960246  0.81298380  0.08306564     0.19960
F2079       F  0.49340147  0.80352830  0.10288122    -0.12890
F2080       F  0.52981354  0.79042796  0.14754378    -0.15250
F2081       F  0.56196676  0.85307861  0.97593937    -0.15250
F2082       F  0.59802255  0.83934909  0.01709652    -0.12890
C2083       C  0.56931547  0.70291667  0.10795015     0.25120
C2084       C  0.56520199  0.71407839  0.15200364    -0.22990
C2085       C  0.53687467  0.70513628  0.16635312     0.20030
C2086       C  0.51354445  0.68676285  0.13624965     0.25060
C2087       C  0.51781279  0.67665534  0.09126933    -0.22930
C2088       C  0.54594683  0.68458998  0.07783990     0.19960
F2089       F  0.55092759  0.67523125  0.03454513    -0.12890
F2090       F  0.59603660  0.71089338  0.09241348    -0.15250
F2091       F  0.98669806  0.67852818  0.15147956    -0.15250
F2092       F  0.53168635  0.71459496  0.20933130    -0.12890
C2093       C  0.77918692  0.94948128  0.01229771     0.25120
C2094       C  0.78386946  0.93835615  0.96884008    -0.22990
C2095       C  0.76979995  0.90900360  0.96258588     0.20030
C2096       C  0.75192775  0.89109250  0.99976491     0.25060
C2097       C  0.74865121  0.90227563  0.04443190    -0.22930
C2098       C  0.76181711  0.93155570  0.04997480     0.19960
F2099       F  0.75791847  0.94274788  0.09200891    -0.12890
F2100       F  0.79297979  0.97772609  0.01958979    -0.15250
F2101       F  0.73873354  0.86283898  0.99304102    -0.15250
F2102       F  0.77458432  0.89777468  0.92149337    -0.12890
C2103       C  0.67756873  0.96749927  0.05760982     0.25120
C2104       C  0.65210170  0.95748314  0.02986188    -0.22990
C2105       C  0.62899121  0.93021163  0.03820546     0.20030
C2106       C  0.63172384  0.91296814  0.07241395     0.25060
C2107       C  0.65759927  0.92251287  0.09792215    -0.22930
C2108       C  0.68033303  0.94997940  0.09124736     0.19960
F2109       F  0.70551252  0.95936966  0.11568585    -0.12890
F2110       F  0.69978088  0.99421925  0.05209612    -0.15250
F2111       F  0.60919818  0.88679593  0.08057779    -0.15250
F2112       F  0.60419576  0.91990220  0.01203866    -0.12890
C2113       C  0.76277353  0.84927950  0.41042888     0.25120
C2114       C  0.76558423  0.84782391  0.35849755    -0.22990
C2115       C  0.78718967  0.84350768  0.34037281     0.20030
C2116       C  0.80540017  0.84058534  0.37354106     0.25060
C2117       C  0.80205994  0.84158263  0.42521815    -0.22930
C2118       C  0.78060024  0.84592780  0.44321634     0.19960
F2119       F  0.77788533  0.84848016  0.49282306    -0.12890
F2120       F  0.74299459  0.85447542  0.42982398    -0.15250
F2121       F  0.82645627  0.83698394  0.35531719    -0.15250
F2122       F  0.79030878  0.84147299  0.29078792    -0.12890
C2123       C  0.68851978  0.74087460  0.37464931     0.25120
C2124       C  0.67283385  0.73622487  0.33036394    -0.22990
C2125       C  0.65941463  0.70929257  0.30795202     0.20030
C2126       C  0.66192031  0.68773692  0.32885819     0.25060
C2127       C  0.67749441  0.69232282  0.37301890    -0.22930
C2128       C  0.69081561  0.71907089  0.39581239     0.19960
F2129       F  0.70558199  0.72394037  0.43910938    -0.12890
F2130       F  0.70217869  0.76660415  0.39683621    -0.15250
F2131       F  0.64936684  0.66235556  0.30544684    -0.15250
F2132       F  0.64352264  0.70357500  0.26575303    -0.12890
C2133       C  0.57482085  0.84310839  0.35985757     0.25120
C2134       C  0.57990455  0.85582791  0.31300961    -0.22990
C2135       C  0.56137790  0.86412261  0.29464007     0.20030
C2136       C  0.53821330  0.86008338  0.32327388     0.25060
C2137       C  0.53364305  0.84820966  0.37132838    -0.22930
C2138       C  0.55248922  0.84004982  0.38937022     0.19960
F2139       F  0.54956817  0.82932236  0.43568698    -0.12890
F2140       F  0.59062582  0.83208306  0.37573749    -0.15250
F2141       F  0.51974411  0.86699261  0.30333001    -0.15250
F2142       F  0.56476413  0.87459852  0.24801531    -0.12890
C2143       C  0.78765480  0.93764579  0.31106510     0.25120
C2144       C  0.77024059  0.94582886  0.28614981    -0.22990
C2145       C  0.77574432  0.97322457  0.29360911     0.20030
C2146       C  0.79840340  0.99202327  0.32504858     0.25060
C2147       C  0.81531460  0.98336275  0.35075834    -0.22930
C2148       C  0.80951390  0.95591598  0.34309794     0.19960
F2149       F  0.82379579  0.94591870  0.36906251    -0.12890
F2150       F  0.78256793  0.91108676  0.30677566    -0.15470
F2151       F  0.80378278  0.01866631  0.33032923    -0.15250
F2152       F  0.75950015  0.98184498  0.27026193    -0.12890
C2153       C  0.64780736  0.89099757  0.43951103     0.25120
C2154       C  0.67277707  0.90002113  0.41152820    -0.22990
C2155       C  0.69331288  0.92904392  0.41190328     0.20030
C2156       C  0.68806721  0.94857732  0.43552148     0.25060
C2157       C  0.66195624  0.93986347  0.45963651    -0.22930
C2158       C  0.64225300  0.91065224  0.46270404     0.19960
F2159       F  0.61729697  0.90110319  0.48723504    -0.12890
F2160       F  0.62795014  0.86325953  0.44193392    -0.15250
F2161       F  0.70774473  0.97636268  0.43106961    -0.15250
F2162       F  0.71762373  0.93881773  0.38515884    -0.12890
C2163       C  0.55195119  0.70981360  0.40542474     0.25120
C2164       C  0.56081377  0.71494208  0.45538092    -0.22990
C2165       C  0.58046153  0.74233955  0.47145304     0.20030
C2166       C  0.59244772  0.76417917  0.43723413     0.25060
C2167       C  0.58479534  0.75881647  0.38649050    -0.22930
C2168       C  0.56379716  0.73158376  0.37117831     0.19960
F2169       F  0.55617684  0.72552917  0.32256114    -0.12890
F2170       F  0.53186534  0.68359404  0.38978190    -0.15250
F2171       F  0.61235176  0.79036568  0.45334823    -0.15250
F2172       F  0.58871340  0.74769846  0.51991650    -0.12890
C2173       C  0.94615886  0.94278910  0.52045203     0.25120
C2174       C  0.95014218  0.95874217  0.47748259    -0.22990
C2175       C  0.92686108  0.94984147  0.44522033     0.20030
C2176       C  0.90042599  0.92610261  0.45611260     0.25060
C2177       C  0.89763135  0.90678884  0.49388943    -0.22930
C2178       C  0.92125482  0.91646569  0.52700233     0.19960
F2179       F  0.92112049  0.90106983  0.56596912    -0.12890
F2180       F  0.96692221  0.95242305  0.55584971    -0.15250
F2181       F  0.87767247  0.92345602  0.43057056    -0.15250
F2182       F  0.92949822  0.96384229  0.40252977    -0.12890
C2183       C  0.52319479  0.58145383  0.43377529     0.25120
C2184       C  0.51864192  0.56241234  0.47165800    -0.22990
C2185       C  0.51763006  0.56963086  0.52126130     0.20030
C2186       C  0.52230156  0.59608738  0.53329436     0.25060
C2187       C  0.52634695  0.61524595  0.49551405    -0.22930
C2188       C  0.52635363  0.60748069  0.44545271     0.19960
F2189       F  0.52809834  0.62444480  0.40769436    -0.12890
F2190       F  0.52367105  0.57449290  0.38554125    -0.15250
F2191       F  0.52299803  0.60296626  0.58198673    -0.15250
F2192       F  0.51250852  0.55102062  0.55820565    -0.12890
C2193       C  0.61065838  0.59363878  0.48527624     0.25120
C2194       C  0.62516210  0.59603438  0.44088508    -0.22990
C2195       C  0.61048716  0.57667063  0.40226328     0.20030
C2196       C  0.58168260  0.55567948  0.40750040     0.25060
C2197       C  0.56697557  0.55321534  0.45186040    -0.22930
C2198       C  0.58207123  0.57206284  0.49118022     0.19960
F2199       F  0.56940425  0.56943519  0.53560392    -0.12890
F2200       F  0.62395123  0.61282493  0.52232157    -0.15250
F2201       F  0.56796108  0.53785744  0.36885290    -0.15250
F2202       F  0.62389200  0.57868399  0.35877229    -0.12890
C2203       C  0.91669363  0.51229277  0.48919832     0.25120
C2204       C  0.90961024  0.51799242  0.44183081    -0.22990
C2205       C  0.92865306  0.52357755  0.40245872     0.20030
C2206       C  0.95366951  0.52273303  0.40992671     0.25060
C2207       C  0.96015488  0.51609347  0.45679635    -0.22930
C2208       C  0.94171249  0.51142723  0.49655730     0.19960
F2209       F  0.94749160  0.50511775  0.54219033    -0.12890
F2210       F  0.89875110  0.50634377  0.52806198    -0.15250
F2211       F  0.97060932  0.52646919  0.37043891    -0.15250
F2212       F  0.92300516  0.52973535  0.35657699    -0.12890
C2213       C  0.58460223  0.97834885  0.42984580     0.25120
C2214       C  0.59814335  0.48281095  0.47651938    -0.22990
C2215       C  0.58830331  0.49220873  0.51638029     0.20030
C2216       C  0.56776997  0.49961930  0.50878419     0.25060
C2217       C  0.55476564  0.49588259  0.46217200    -0.22930
C2218       C  0.56270203  0.98440858  0.42296550     0.19960
F2219       F  0.54964098  0.97961326  0.37792126    -0.12890
F2220       F  0.59328608  0.96928129  0.39057980    -0.15250
F2221       F  0.55987192  0.50976574  0.54763315    -0.15250
F2222       F  0.59922349  0.49496135  0.56296406    -0.12890
C2223       C  0.98158658  0.90879663  0.40614913     0.25120
C2224       C  0.98873757  0.89691242  0.44527966    -0.22990
C2225       C  0.49918262  0.91137777  0.49047979     0.20030
C2226       C  0.50317792  0.93797875  0.49619343     0.25060
C2227       C  0.99661028  0.95019472  0.45677022    -0.22930
C2228       C  0.98535332  0.93539891  0.41203003     0.19960
F2229       F  0.97903004  0.94720860  0.37371851    -0.12890
F2230       F  0.97158470  0.89486587  0.36223476    -0.15250
F2231       F  0.51393801  0.95199116  0.53977319    -0.15250
F2232       F  0.50682309  0.90025389  0.52811758    -0.12890
C2233       C  0.72105421  0.64846725  0.86988975     0.25120
C2234       C  0.73310734  0.66437453  0.82666054    -0.22990
C2235       C  0.72147255  0.67996970  0.80726654     0.20030
C2236       C  0.69844994  0.67973066  0.83065454     0.25060
C2237       C  0.68632072  0.66365952  0.87359410    -0.22930
C2238       C  0.69786284  0.64801505  0.89292661     0.19960
F2239       F  0.68703179  0.63268493  0.93488172    -0.12890
F2240       F  0.73131924  0.63283658  0.88940628    -0.15250
F2241       F  0.68770454  0.69489419  0.81084636    -0.15250
F2242       F  0.73278344  0.69599538  0.76618300    -0.12890
C2243       C  0.86032931  0.77891838  0.87852805     0.25120
C2244       C  0.85773478  0.75306503  0.89012146    -0.22990
C2245       C  0.85696660  0.74563584  0.94057290     0.20030
C2246       C  0.85803868  0.76347377  0.97842336     0.25060
C2247       C  0.86007391  0.78894645  0.96643981    -0.22930
C2248       C  0.86130731  0.79657733  0.91633388     0.19960
F2249       F  0.86233023  0.82077241  0.90391950    -0.12890
F2250       F  0.86044540  0.78655250  0.83059906    -0.15250
F2251       F  0.85722366  0.75599036  0.02664956    -0.15250
F2252       F  0.85521594  0.72113812  0.95336803    -0.12890
C2253       C  0.96945609  0.68307766  0.64659095     0.25120
C2254       C  0.94234553  0.67000468  0.62340532    -0.22990
C2255       C  0.93810597  0.65598317  0.57775110     0.20030
C2256       C  0.96041678  0.65483522  0.55577928     0.25060
C2257       C  0.98730140  0.66777764  0.57891333    -0.22930
C2258       C  0.99191999  0.68212427  0.62412745     0.19960
F2259       F  0.51812388  0.69524624  0.64617000    -0.12890
F2260       F  0.97436755  0.69728514  0.69024478    -0.15250
F2261       F  0.95603889  0.64168879  0.51109806    -0.15250
F2262       F  0.91222709  0.64288211  0.55474760    -0.12890
C2263       C  0.93844130  0.78969006  0.58947307     0.25120
C2264       C  0.92015005  0.76166461  0.57397530    -0.22990
C2265       C  0.92200388  0.75434977  0.52408055     0.20030
C2266       C  0.94081739  0.77456925  0.49070332     0.25060
C2267       C  0.95831455  0.80253143  0.50599712    -0.22930
C2268       C  0.95737873  0.80979168  0.55597472     0.19960
F2269       F  0.97466011  0.83662361  0.57232224    -0.12890
F2270       F  0.93800239  0.79788961  0.63690217    -0.15250
F2271       F  0.94079603  0.76702347  0.44262850    -0.15250
F2272       F  0.90511508  0.72771418  0.50658151    -0.12890
C2273       C  0.92816905  0.75225723  0.87884917     0.25120
C2274       C  0.94037492  0.75751525  0.83129613    -0.22990
C2275       C  0.96269161  0.78474550  0.81984838     0.20030
C2276       C  0.97313823  0.80613946  0.85583947     0.25060
C2277       C  0.96108860  0.80066905  0.90346494    -0.22930
C2278       C  0.93864442  0.77354195  0.91476297     0.19960
F2279       F  0.92681131  0.76777545  0.96067695    -0.12890
F2280       F  0.90470977  0.72703328  0.88942056    -0.15250
F2281       F  0.99553019  0.83198117  0.84473352    -0.15250
F2282       F  0.97394513  0.79066310  0.77352094    -0.12890
C2283       C  0.92140764  0.67809321  0.93209305     0.25120
C2284       C  0.89187519  0.65830283  0.92732871    -0.22990
C2285       C  0.88054373  0.63371235  0.95605390     0.20030
C2286       C  0.89870773  0.62818898  0.98543284     0.25060
C2287       C  0.92853174  0.64741419  0.98743133    -0.22930
C2288       C  0.93930879  0.67287647  0.96176152     0.19960
F2289       F  0.96783185  0.69176607  0.96127509    -0.12890
F2290       F  0.93372944  0.70148474  0.90362534    -0.15250
F2291       F  0.88726610  0.60360581  0.01055778    -0.15250
F2292       F  0.85234250  0.61403221  0.95270218    -0.12890
C2293       C  0.80373751  0.77130975  0.63227887     0.25120
C2294       C  0.82431782  0.76323158  0.63339363    -0.22990
C2295       C  0.84896305  0.77843400  0.60412496     0.20030
C2296       C  0.85337288  0.80119272  0.57533335     0.25060
C2297       C  0.83318601  0.80964200  0.57423742    -0.22930
C2298       C  0.80809682  0.79430339  0.60279435     0.19960
F2299       F  0.78806210  0.80184451  0.60270480    -0.12890
F2300       F  0.77994088  0.75753415  0.66047492    -0.15250
F2301       F  0.87703243  0.81425352  0.54653598    -0.15250
F2302       F  0.86878159  0.77070906  0.60221843    -0.12890
C2303       C  0.76738553  0.64362138  0.48821912     0.25120
C2304       C  0.78258548  0.66843490  0.51666793    -0.22990
C2305       C  0.77456731  0.68872484  0.51345645     0.20030
C2306       C  0.75002479  0.68310726  0.48732715     0.25060
C2307       C  0.73322391  0.65730818  0.46199509    -0.22930
C2308       C  0.74290059  0.63812476  0.46087148     0.19960
F2309       F  0.72805738  0.61363141  0.43501517    -0.12890
F2310       F  0.77441877  0.62348525  0.49112882    -0.15250
F2311       F  0.74132501  0.70199780  0.49090337    -0.15250
F2312       F  0.78858729  0.71271523  0.54105832    -0.12890
C2313       C  0.84110902  0.56487034  0.84727639     0.25120
C2314       C  0.85317635  0.56984466  0.79966558    -0.22990
C2315       C  0.85803264  0.54975088  0.77768900     0.20030
C2316       C  0.85153822  0.52529946  0.80368915     0.25060
C2317       C  0.83942116  0.52033720  0.85155296    -0.22930
C2318       C  0.83439413  0.54044729  0.87308621     0.19960
F2319       F  0.82351027  0.53673026  0.91956612    -0.12890
F2320       F  0.83454137  0.58319849  0.86781288    -0.15250
F2321       F  0.85668418  0.50623123  0.78191966    -0.15250
F2322       F  0.86833427  0.55348606  0.73076891    -0.12890
C2323       C  0.73196741  0.54187800  0.83694517     0.25120
C2324       C  0.74911439  0.56946037  0.85617037    -0.22990
C2325       C  0.74105077  0.57657877  0.90118317     0.20030
C2326       C  0.71565004  0.55746607  0.92404758     0.25060
C2327       C  0.69816977  0.53072812  0.90342731    -0.22930
C2328       C  0.70671248  0.52262910  0.86072318     0.19960
F2329       F  0.69025402  0.49632948  0.84151785    -0.12890
F2330       F  0.73915476  0.53356892  0.79472649    -0.15250
F2331       F  0.70804313  0.56502646  0.96669482    -0.15250
F2332       F  0.75725105  0.60223370  0.92293090    -0.12890
C2333       C  0.69601787  0.52302840  0.60616029     0.25120
C2334       C  0.69156789  0.52945191  0.55783798    -0.22990
C2335       C  0.70152436  0.55776507  0.54590620     0.20030
C2336       C  0.71657433  0.57925812  0.58106675     0.25060
C2337       C  0.72224796  0.57294142  0.62872390    -0.22930
C2338       C  0.71104667  0.54445162  0.64123330     0.19960
F2339       F  0.71547281  0.53739205  0.68729499    -0.12890
F2340       F  0.68524821  0.49588524  0.61980120    -0.15250
F2341       F  0.72701346  0.60633556  0.56754014    -0.15250
F2342       F  0.69699405  0.56461785  0.49977069    -0.12890
C2343       C  0.82256233  0.53564314  0.53464961     0.25120
C2344       C  0.84187149  0.54805448  0.49547153    -0.22990
C2345       C  0.85446628  0.57677940  0.48671014     0.20030
C2346       C  0.84865712  0.59333077  0.51761014     0.25060
C2347       C  0.83077991  0.58157111  0.55950519    -0.22930
C2348       C  0.81719277  0.55229318  0.56682750     0.19960
F2349       F  0.79896853  0.53975671  0.60516883    -0.12890
F2350       F  0.80944007  0.50752969  0.54229005    -0.15250
F2351       F  0.86120292  0.62104415  0.50653791    -0.15250
F2352       F  0.87257869  0.58886611  0.44800402    -0.12890
loop_ 
_geom_bond_atom_site_label_1 
_geom_bond_atom_site_label_2 
_geom_bond_distance 
_geom_bond_site_symmetry_2 
_ccdc_geom_bond_type 
O1          Zr37   2.394       .  S
O1           C12   1.284       .  A
O2          Zr36   2.415       .  S
O2           C13   1.289       .  A
O3           Zr9   2.402       .  S
O3           C14   1.284       .  A
O4           Zr9   2.386       .  S
O4           C15   1.283       .  A
O5          Zr39   2.499       .  S
O5           C15   1.304       .  A
O6          Zr38   2.485       .  S
O6           C14   1.299       .  A
O7           Zr9   2.428       .  S
O7           C13   1.290       .  A
O8           Zr9   2.461       .  S
O8           C12   1.296       .  A
Zr9          O10   2.343       .  S
Zr9          O11   2.325       .  S
Zr9          O19   2.326       .  S
Zr9          O17   2.333       .  S
O10         Zr36   2.352       .  S
O10         Zr39   2.347       .  S
O11         Zr37   2.347       .  S
O11         Zr38   2.344       .  S
C12         C583   1.488       .  S
C13         C560   1.481       .  S
C14         C550   1.468       .  S
C15         C573   1.483       .  S
H16          O17   0.964       .  S
O17         Zr36   2.316       .  S
O17         Zr38   2.333       .  S
H18          O19   0.964       .  S
O19         Zr37   2.315       .  S
O19         Zr39   2.351       .  S
O20         Zr36   2.401       .  S
O20          C43   1.286       .  A
O21         Zr37   2.393       .  S
O21          C44   1.283       .  A
O22         Zr38   2.380       .  S
O22          C45   1.283       .  A
O23         Zr39   2.444       .  S
O23          C46   1.295       .  A
O24         Zr39   2.388       .  S
O24          C47   1.284       .  A
O25         Zr38   2.404       .  S
O25          C48   1.288       .  A
O26         Zr40   2.383       .  S
O26          C49   1.279       .  A
O27         Zr40   2.409       .  S
O27          C50   1.287       .  A
O28         Zr38   2.484       .  S
O28          C49   1.298       .  A
O29         Zr39   2.512       .  S
O29          C50   1.304       .  A
O30         Zr36   2.546       .  S
O30          C45   1.312       .  A
O31         Zr37   2.443       .  S
O31          C48   1.294       .  A
O32         Zr37   2.498       .  S
O32          C47   1.302       .  A
O33         Zr36   2.459       .  S
O33          C46   1.297       .  A
O34         Zr40   2.458       .  S
O34          C43   1.297       .  A
O35         Zr40   2.478       .  S
O35          C44   1.299       .  A
Zr36         O42   2.318       .  S
Zr36         O54   2.376       .  S
Zr37         O41   2.328       .  S
Zr37         O52   2.350       .  S
Zr38         O42   2.322       .  S
Zr38         O52   2.349       .  S
Zr39         O41   2.338       .  S
Zr39         O54   2.351       .  S
Zr40         O41   2.321       .  S
Zr40         O42   2.339       .  S
Zr40         O54   2.349       .  S
Zr40         O52   2.334       .  S
C43         C480   1.475       .  S
C44         C500   1.494       .  S
C45         C520   1.499       .  S
C46         C470   1.489       .  S
C47         C540   1.476       .  S
C48         C490   1.466       .  S
C49         C510   1.468       .  S
C50         C530   1.498       .  S
H51          O52   0.965       .  S
H53          O54   0.966       .  S
C55         C410   1.507       .  S
C55          C56   1.413       .  A
C55         C648   1.415       .  A
C56         C463   1.465       .  S
C56        C1821   1.412       .  A
C57         C453   1.496   1_545  S
C57          C58   1.412       .  A
C57        C1820   1.412   1_545  A
C58         C433   1.505       .  S
C58          C59   1.425       .  A
C59         C420   1.472       .  S
C59        C1236   1.424   1_455  A
C60         C443   1.498       .  S
C60         C643   1.415   1_545  A
C60        C1235   1.424       .  A
C61        C1669   1.457   1_455  S
C61          C62   1.397       .  A
C61          C66   1.392       .  A
C62          C63   1.403       .  A
C62          H67   1.084   1_455  S
C63         C423   1.482       .  S
C63          C64   1.404       .  A
C64          C65   1.402       .  A
C64          H68   1.083       .  S
C65         C400   1.464       .  S
C65          C66   1.393       .  A
C66          H69   1.085       .  S
C70         C393   1.513       .  S
C70          C75   1.425       .  A
C70         C659   1.418       .  A
C71          C72   1.409   1_565  A
C71         C658   1.418       .  A
C71          H76   1.083       .  S
C72         C570   1.486       .  S
C72          C73   1.387       .  A
C73          C74   1.397   1_545  A
C73          H77   1.085       .  S
C74         C450   1.497       .  S
C74         C663   1.419       .  A
C75         C662   1.419       .  A
C75          H78   1.083       .  S
C79         C580   1.466       .  S
C79          C80   1.400       .  A
C79          C84   1.395       .  A
C80          C81   1.403       .  A
C80          H85   1.084       .  S
C81         C440   1.497       .  S
C81          C82   1.414       .  A
C82          C83   1.418       .  A
C82         H674   1.083   1_545  S
C83         C971   1.494   1_545  S
C83          C84   1.400       .  A
C84          H87   1.084       .  S
H86         C670   1.083       .  S
C88         C373   1.488       .  S
C88          C93   1.397       .  A
C88        C1265   1.418   1_455  A
C89          C90   1.414       .  A
C89        C1264   1.418       .  A
C89          H94   1.082       .  S
C90         C503   1.483       .  S
C90          C91   1.395       .  A
C91          C92   1.388       .  A
C91          H95   1.085       .  S
C92         C460   1.451       .  S
C92        C1269   1.390       .  A
C93        C1268   1.390   1_455  A
C93          H96   1.084       .  S
C97         C543   1.497       .  S
C97          C98   1.419       .  A
C97         C102   1.406       .  A
C98          C99   1.414       .  A
C98         H103   1.083       .  S
C99         C430   1.485       .  S
C99         C100   1.398       .  A
C100        C101   1.399       .  A
C100        H104   1.085       .  S
C101        C363   1.479       .  S
C101        C102   1.398       .  A
C102        H105   1.084       .  S
C106        C533   1.501       .  S
C106        C107   1.423       .  A
C106        C111   1.402       .  A
C107        C108   1.430       .  A
C107        H112   1.074       .  S
C108        C413   1.534       .  S
C108        C109   1.408       .  A
C109        C110   1.393       .  A
C109        H113   1.075       .  S
C110        C353   1.476       .  S
C110        C111   1.399       .  A
C111        H114   1.084       .  S
O115       Zr151   2.393       .  S
O115        C126   1.284       .  A
O116       Zr150   2.420       .  S
O116        C127   1.289       .  A
O117       Zr123   2.382       .  S
O117        C128   1.281       .  A
O118       Zr123   2.397       .  S
O118        C129   1.284       .  A
O119       Zr153   2.487       .  S
O119        C129   1.301       .  A
O120       Zr152   2.484       .  S
O120        C128   1.299       .  A
O121       Zr123   2.430       .  S
O121        C127   1.290       .  A
O122       Zr123   2.450       .  S
O122        C126   1.294       .  A
Zr123       O124   2.331       .  S
Zr123       O125   2.327       .  S
Zr123       O133   2.327       .  S
Zr123       O131   2.339       .  S
O124       Zr150   2.319       .  S
O124       Zr153   2.328       .  S
O125       Zr151   2.312       .  S
O125       Zr152   2.342       .  S
C126        C403   1.468       .  S
C127        C310   1.482       .  S
C128        C370   1.463       .  S
C129        C320   1.491       .  S
H130        O131   0.965       .  S
O131       Zr150   2.351       .  S
O131       Zr152   2.345       .  S
H132        O133   0.965       .  S
O133       Zr151   2.359       .  S
O133       Zr153   2.348       .  S
O134       Zr150   2.415       .  S
O134        C157   1.287       .  A
O135       Zr151   2.388       .  S
O135        C158   1.284       .  A
O136       Zr152   2.433       .  S
O136        C159   1.292       .  A
O137       Zr153   2.393       .  S
O137        C160   1.284       .  A
O138       Zr153   2.402       .  S
O138        C161   1.288       .  A
O139       Zr152   2.381       .  S
O139        C162   1.282       .  A
O140       Zr154   2.396       .  S
O140        C163   1.285       .  A
O141       Zr154   2.399       .  S
O141        C164   1.286       .  A
O142       Zr152   2.502       .  S
O142        C163   1.303       .  A
O143       Zr153   2.485       .  S
O143        C164   1.299       .  A
O144       Zr150   2.420       .  S
O144        C159   1.289       .  A
O145       Zr151   2.548       .  S
O145        C162   1.312       .  A
O146       Zr151   2.471       .  S
O146        C161   1.299       .  A
O147       Zr150   2.497       .  S
O147        C160   1.302       .  A
O148       Zr154   2.473       .  S
O148        C157   1.298       .  A
O149       Zr154   2.478       .  S
O149        C158   1.300       .  A
Zr150       O156   2.360       .  S
Zr150       O168   2.322       .  S
Zr151       O155   2.356       .  S
Zr151       O166   2.324       .  S
Zr152       O156   2.340       .  S
Zr152       O166   2.341       .  S
Zr153       O155   2.340       .  S
Zr153       O168   2.335       .  S
Zr154       O155   2.330       .  S
Zr154       O156   2.336       .  S
Zr154       O168   2.339       .  S
Zr154       O166   2.344       .  S
C157        C333   1.473       .  S
C158        C350   1.483       .  S
C159        C343   1.454       .  S
C160        C290   1.479       .  S
C161        C360   1.481       .  S
C162        C390   1.500       .  S
C163        C380   1.487       .  S
C164        C303   1.472       .  S
H165        O166   0.964       .  S
H167        O168   0.965       .  S
C169        C523   1.507   1_554  S
C169        C170   1.419       .  A
C169        C174   1.417       .  A
C170        C171   1.412       .  A
C170        H175   1.083       .  S
C171       C1499   1.491       .  S
C171        C172   1.392       .  A
C172        C173   1.398       .  A
C172       H1352   1.085       .  S
C173        C280   1.487       .  S
C173        C174   1.412       .  A
C174        H177   1.083   1_554  S
H176       C1348   1.085   1_455  S
C178        C283   1.484       .  S
C178        C767   1.405   1_545  A
C178       C1359   1.411       .  A
C179        C233   1.464       .  S
C179        C180   1.400       .  A
C179        C766   1.405       .  A
C180        C270   1.483       .  S
C180       C1357   1.405       .  A
C181        C260   1.492       .  S
C181        C182   1.418       .  A
C181       C1356   1.405   1_455  A
C182        C250   1.468       .  S
C182        C771   1.419       .  A
C183        C240   1.490       .  S
C183       C1354   1.411   1_455  A
C183        C770   1.419       .  A
C184        C340   1.472   1_556  S
C184        C185   1.398       .  A
C184        C189   1.400       .  A
C185        C774   1.393       .  A
C185        H190   1.084       .  S
C186        C563   1.459       .  S
C186        C187   1.399       .  A
C186        C773   1.393   1_545  A
C187        C776   1.401   1_545  A
C187        H191   1.084       .  S
C188        C253   1.476       .  S
C188        C189   1.403       .  A
C188        C775   1.401       .  A
C189        H192   1.083   1_556  S
C193        C313   1.459       .  S
C193        C198   1.400       .  A
C193       C1370   1.388   1_454  A
C194        C195   1.391       .  A
C194       C1369   1.388   1_556  A
C194        H199   1.086       .  S
C195        C513   1.472       .  S
C195        C196   1.408       .  A
C196        C197   1.416       .  A
C196        H200   1.083       .  S
C197        C263   1.493       .  S
C197       C1374   1.408   1_556  A
C198       C1373   1.408   1_454  A
C198        H201   1.084       .  S
C202        C293   1.503       .  S
C202        C203   1.414       .  A
C202        C207   1.412       .  A
C203        C204   1.409       .  A
C203        H208   1.083       .  S
C204        C243   1.486       .  S
C204        C205   1.403       .  A
C205        C206   1.402       .  A
C205        H209   1.084       .  S
C206        C473   1.489       .  S
C206        C207   1.406       .  A
C207        H210   1.083       .  S
C211       C1141   1.484       .  S
C211        C212   1.416       .  A
C211        C216   1.398       .  A
C212        C213   1.413       .  A
C212        H217   1.083       .  S
C213        C330   1.477       .  S
C213        C214   1.396       .  A
C214        C215   1.392       .  A
C214        H218   1.085       .  S
C215        C230   1.463       .  S
C215        C216   1.395       .  A
C216        H807   1.085       .  S
H219        C804   1.085   1_545  S
C220        C483   1.469   1_554  S
C220        C221   1.402       .  A
C220        C225   1.395       .  A
C221        C222   1.403       .  A
C221        H226   1.084       .  S
C222        C300   1.481       .  S
C222        C223   1.412       .  A
C223        C224   1.406       .  A
C223        H227   1.084       .  S
C224        C273   1.485       .  S
C224        C225   1.397       .  A
C225        H228   1.085   1_554  S
C229        C230   1.408       .  A
C229        C234   1.392   1_556  A
C229        F236   1.358   1_556  S
C230        C231   1.401       .  A
C231        C232   1.389       .  A
C231        F238   1.358       .  S
C232        C233   1.402       .  A
C232        F237   1.358       .  S
C233        C234   1.397   1_556  A
C234        F235   1.357       .  S
C239        C240   1.406   1_554  A
C239        C244   1.405   1_554  A
C239        F246   1.357       .  S
C240        C241   1.405       .  A
C241        C242   1.400       .  A
C241        F248   1.357       .  S
C242        C243   1.406       .  A
C242        F247   1.358       .  S
C243        C244   1.407       .  A
C244        F245   1.357   1_556  S
C249        C254   1.392       .  A
C249        C838   1.399   1_554  A
C249        F256   1.358       .  S
C250        C251   1.401       .  A
C250        C837   1.399   1_556  A
C251        C252   1.396       .  A
C251        F258   1.358       .  S
C252        C253   1.408       .  A
C252        F257   1.358       .  S
C253        C842   1.408   1_556  A
C254        C841   1.408   1_554  A
C254        F255   1.358       .  S
C259        C260   1.405       .  A
C259        C264   1.401       .  A
C259        F266   1.357       .  S
C260       C1437   1.403   1_556  A
C261        C262   1.400       .  A
C261       C1436   1.403   1_554  A
C261        F268   1.357       .  S
C262        C263   1.412   1_554  A
C262        F267   1.358       .  S
C263       C1440   1.409       .  A
C264       C1439   1.409   1_455  A
C264        F265   1.357       .  S
C269        C270   1.398       .  A
C269        C274   1.393       .  A
C269        F276   1.357       .  S
C270        C271   1.406   1_556  A
C271        C272   1.400       .  A
C271        F278   1.358       .  S
C272        C273   1.406       .  A
C272        F277   1.357       .  S
C273        C274   1.413   1_554  A
C274        F275   1.357       .  S
C279        C284   1.393       .  A
C279       C1456   1.409       .  A
C279        F286   1.358       .  S
C280        C281   1.409   1_554  A
C280       C1455   1.409       .  A
C281        C282   1.406       .  A
C281        F288   1.357       .  S
C282        C283   1.406       .  A
C282        F287   1.357       .  S
C283       C1460   1.401   1_556  A
C284       C1459   1.401   1_554  A
C284        F285   1.358       .  S
C289        C290   1.405   1_556  A
C289        C294   1.410       .  A
C289        F296   1.358   1_556  S
C290        C291   1.405       .  A
C291        C292   1.397   1_554  A
C291        F298   1.359       .  S
C292        C293   1.411       .  A
C292        F297   1.358       .  S
C293        C294   1.415       .  A
C294        F295   1.357       .  S
C299        C300   1.402       .  A
C299        C304   1.391       .  A
C299        F306   1.359       .  S
C300        C301   1.411       .  A
C301        C302   1.409       .  A
C301        F308   1.357       .  S
C302        C303   1.404       .  A
C302        F307   1.357       .  S
C303        C304   1.406       .  A
C304        F305   1.358       .  S
C309        C310   1.414       .  A
C309        C314   1.398       .  A
C309        F316   1.358       .  S
C310        C311   1.414       .  A
C311        C312   1.389       .  A
C311        F318   1.358       .  S
C312        C313   1.397       .  A
C312        F317   1.359   1_554  S
C313        C314   1.400       .  A
C314        F315   1.358   1_455  S
C319        C320   1.407       .  A
C319        C324   1.402       .  A
C319        F326   1.357       .  S
C320        C321   1.416       .  A
C321        C322   1.402       .  A
C321        F328   1.358       .  S
C322        C323   1.402       .  A
C322       F1503   1.358   1_455  S
C323       C1347   1.491   1_455  S
C323        C324   1.412       .  A
C324        F325   1.358       .  S
F327       C1498   1.358       .  S
C329        C330   1.405   1_554  A
C329        C334   1.401       .  A
C329        F336   1.358       .  S
C330        C331   1.407       .  A
C331        C332   1.400       .  A
C331        F338   1.358       .  S
C332        C333   1.404   1_556  A
C332        F337   1.358       .  S
C333        C334   1.405       .  A
C334        F335   1.358       .  S
C339        C340   1.411       .  A
C339        C344   1.394       .  A
C339        F346   1.358       .  S
C340        C341   1.405       .  A
C341        C342   1.392       .  A
C341        F348   1.358       .  S
C342        C343   1.401       .  A
C342        F347   1.355       .  S
C343        C344   1.398       .  A
C344        F345   1.358       .  S
C349        C350   1.413       .  A
C349        C354   1.392       .  A
C349        F356   1.359       .  S
C350        C351   1.408       .  A
C351        C352   1.403       .  A
C351        F358   1.358       .  S
C352        C353   1.408       .  A
C352        F357   1.358       .  S
C353        C354   1.400       .  A
C354        F355   1.359       .  S
C359        C360   1.407       .  A
C359        C364   1.401       .  A
C359        F366   1.358       .  S
C360        C361   1.413       .  A
C361        C362   1.392       .  A
C361        F368   1.359       .  S
C362        C363   1.401       .  A
C362        F367   1.358       .  S
C363        C364   1.409       .  A
C364        F365   1.358       .  S
C369        C370   1.405       .  A
C369        C374   1.394       .  A
C369        F376   1.357       .  S
C370        C371   1.398       .  A
C371        C372   1.401       .  A
C371        F378   1.358       .  S
C372        C373   1.417       .  A
C372        F377   1.358       .  S
C373        C374   1.405       .  A
C374        F375   1.358       .  S
C379        C380   1.414       .  A
C379        C384   1.390       .  A
C379        F386   1.356       .  S
C380        C381   1.403       .  A
C381        C382   1.410       .  A
C381        F388   1.357       .  S
C382        C383   1.419       .  A
C382        F387   1.357       .  S
C383        C671   1.494       .  S
C383        C384   1.401       .  A
C384        F385   1.358       .  S
C389        C390   1.410       .  A
C389        C394   1.417       .  A
C389        F396   1.354       .  S
C390        C391   1.411       .  A
C391        C392   1.406       .  A
C391        F398   1.359       .  S
C392        C393   1.411       .  A
C392        F397   1.358       .  S
C393        C394   1.414       .  A
C394        F395   1.357       .  S
C399        C400   1.404       .  A
C399        C404   1.392       .  A
C399        F406   1.358       .  S
C400        C401   1.400       .  A
C401        C402   1.394       .  A
C401        F408   1.358       .  S
C402        C403   1.411       .  A
C402        F407   1.359       .  S
C403        C404   1.405       .  A
C404        F405   1.358       .  S
C409        C410   1.407       .  A
C409        C414   1.405       .  A
C409        F416   1.356       .  S
C410        C411   1.397       .  A
C411        C412   1.398       .  A
C411        F418   1.355       .  S
C412        C413   1.430       .  A
C412        F417   1.356       .  S
C413        C414   1.420       .  A
C414        F415   1.352       .  S
C419        C420   1.399       .  A
C419        C424   1.398       .  A
C419        F426   1.357       .  S
C420        C421   1.402       .  A
C421        C422   1.391       .  A
C421        F428   1.359       .  S
C422        C423   1.407       .  A
C422        F427   1.358       .  S
C423        C424   1.413       .  A
C424        F425   1.358       .  S
C429        C430   1.405       .  A
C429        C434   1.406       .  A
C429        F436   1.358       .  S
C430        C431   1.405       .  A
C431        C432   1.403       .  A
C431        F438   1.358       .  S
C432        C433   1.410       .  A
C432        F437   1.357       .  S
C433        C434   1.410       .  A
C434        F435   1.355       .  S
C439        C440   1.413       .  A
C439        C444   1.404       .  A
C439        F446   1.358       .  S
C440        C441   1.408       .  A
C441        C442   1.404       .  A
C441        F448   1.358       .  S
C442        C443   1.409       .  A
C442        F447   1.357       .  S
C443        C444   1.404       .  A
C444        F445   1.357       .  S
C449        C454   1.410       .  A
C449       C1038   1.409       .  A
C449        F456   1.357       .  S
C450        C451   1.415       .  A
C450       C1037   1.409       .  A
C451        C452   1.392       .  A
C451        F458   1.359       .  S
C452        C453   1.399       .  A
C452        F457   1.359   1_565  S
C453       C1042   1.410       .  A
C454       C1041   1.410       .  A
C454        F455   1.357       .  S
C459        C460   1.400       .  A
C459        C464   1.390       .  A
C459        F466   1.358       .  S
C460       C1637   1.401       .  A
C461        C462   1.384   1_655  A
C461       C1636   1.401       .  A
C461        F468   1.358   1_655  S
C462       C1639   1.401   1_455  A
C462        F467   1.357       .  S
C463        C464   1.402       .  A
C463       C1638   1.401       .  A
C464        F465   1.358       .  S
C469        C470   1.408       .  A
C469        C474   1.401       .  A
C469        F476   1.357       .  S
C470        C471   1.410       .  A
C471        C472   1.403       .  A
C471        F478   1.358       .  S
C472        C473   1.406       .  A
C472        F477   1.358       .  S
C473        C474   1.408       .  A
C474        F475   1.358       .  S
C479        C480   1.403       .  A
C479        C484   1.391       .  A
C479        F486   1.358       .  S
C480        C481   1.415       .  A
C481        C482   1.397       .  A
C481        F488   1.358       .  S
C482        C483   1.398       .  A
C482        F487   1.358   1_556  S
C483        C484   1.406       .  A
C484        F485   1.357       .  S
C489        C490   1.410       .  A
C489        C494   1.395       .  A
C489        F496   1.358       .  S
C490        C491   1.404       .  A
C491        C492   1.387       .  A
C491        F498   1.356       .  S
C492        C493   1.400       .  A
C492        F497   1.359       .  S
C493       C1237   1.457       .  S
C493        C494   1.400       .  A
C494       F1671   1.358       .  S
F495       C1670   1.358   1_455  S
C499        C500   1.408       .  A
C499        C504   1.399       .  A
C499        F506   1.358       .  S
C500        C501   1.420       .  A
C501        C502   1.397       .  A
C501        F508   1.358       .  S
C502        C503   1.398       .  A
C502        F507   1.358       .  S
C503        C504   1.411       .  A
C504        F505   1.358       .  S
C509        C510   1.407       .  A
C509        C514   1.395       .  A
C509        F516   1.357       .  S
C510        C511   1.406       .  A
C511        C512   1.400       .  A
C511        F518   1.358       .  S
C512        C513   1.405       .  A
C512        F517   1.358       .  S
C513        C514   1.403       .  A
C514        F515   1.358       .  S
C519        C520   1.413       .  A
C519        C524   1.400       .  A
C519        F526   1.356       .  S
C520        C521   1.409       .  A
C521        C522   1.417       .  A
C521        F528   1.356       .  S
C522        C523   1.415       .  A
C522        F527   1.357   1_556  S
C523        C524   1.405       .  A
C524        F525   1.358       .  S
C529        C530   1.408       .  A
C529        C534   1.418       .  A
C529        F536   1.357       .  S
C530        C531   1.411       .  A
C531        C532   1.396       .  A
C531        F538   1.354       .  S
C532        C533   1.402       .  A
C532        F537   1.359       .  S
C533        C534   1.417       .  A
C534        F535   1.357       .  S
C539        C540   1.407       .  A
C539        C544   1.410       .  A
C539        F546   1.358       .  S
C540        C541   1.405       .  A
C541        C542   1.395       .  A
C541        F548   1.359       .  S
C542        C543   1.411       .  A
C542        F547   1.358       .  S
C543        C544   1.411       .  A
C544        F545   1.357       .  S
C549        C550   1.406       .  A
C549        C554   1.397       .  A
C549        F556   1.357       .  S
C550        C551   1.401       .  A
C551        C552   1.404       .  A
C551        F558   1.358       .  S
C552        C553   1.413       .  A
C552        F557   1.358       .  S
C553        C799   1.484   1_545  S
C553        C554   1.403       .  A
C554        F555   1.358       .  S
C559        C560   1.414       .  A
C559        C564   1.397       .  A
C559        F566   1.358       .  S
C560        C561   1.413       .  A
C561        C562   1.388       .  A
C561        F568   1.358       .  S
C562        C563   1.397       .  A
C562        F567   1.359       .  S
C563        C564   1.399       .  A
C564        F565   1.358   1_545  S
C569        C570   1.402       .  A
C569        C574   1.399       .  A
C569        F576   1.358   1_545  S
C570        C571   1.412       .  A
C571        C572   1.403       .  A
C571        F578   1.358       .  S
C572        C573   1.405       .  A
C572        F577   1.356       .  S
C573        C574   1.413       .  A
C574        F575   1.358       .  S
C579        C580   1.403       .  A
C579        C584   1.401       .  A
C579        F586   1.357       .  S
C580        C581   1.395       .  A
C581        C582   1.390       .  A
C581        F588   1.359       .  S
C582        C583   1.418       .  A
C582        F587   1.358       .  S
C583        C584   1.411       .  A
C584        F585   1.357       .  S
O589       Zr625   2.394       .  S
O589        C600   1.284       .  A
O590       Zr624   2.415       .  S
O590        C601   1.289       .  A
O591       Zr597   2.402       .  S
O591        C602   1.284       .  A
O592       Zr597   2.386       .  S
O592        C603   1.283       .  A
O593       Zr627   2.499       .  S
O593        C603   1.304       .  A
O594       Zr626   2.485       .  S
O594        C602   1.299       .  A
O595       Zr597   2.428       .  S
O595        C601   1.290       .  A
O596       Zr597   2.461       .  S
O596        C600   1.296       .  A
Zr597       O598   2.343       .  S
Zr597       O599   2.325       .  S
Zr597       O607   2.326       .  S
Zr597       O605   2.333       .  S
O598       Zr624   2.352       .  S
O598       Zr627   2.347       .  S
O599       Zr625   2.347       .  S
O599       Zr626   2.344       .  S
C600       C1171   1.488       .  S
C601       C1148   1.481       .  S
C602       C1138   1.468       .  S
C603       C1161   1.483       .  S
H604        O605   0.964       .  S
O605       Zr624   2.316       .  S
O605       Zr626   2.333       .  S
H606        O607   0.964       .  S
O607       Zr625   2.315       .  S
O607       Zr627   2.351       .  S
O608       Zr624   2.401       .  S
O608        C631   1.286       .  A
O609       Zr625   2.393       .  S
O609        C632   1.283       .  A
O610       Zr626   2.380       .  S
O610        C633   1.283       .  A
O611       Zr627   2.444       .  S
O611        C634   1.295       .  A
O612       Zr627   2.388       .  S
O612        C635   1.284       .  A
O613       Zr626   2.404       .  S
O613        C636   1.288       .  A
O614       Zr628   2.383       .  S
O614        C637   1.279       .  A
O615       Zr628   2.409       .  S
O615        C638   1.287       .  A
O616       Zr626   2.484       .  S
O616        C637   1.298       .  A
O617       Zr627   2.512       .  S
O617        C638   1.304       .  A
O618       Zr624   2.546       .  S
O618        C633   1.312       .  A
O619       Zr625   2.443       .  S
O619        C636   1.294       .  A
O620       Zr625   2.498       .  S
O620        C635   1.302       .  A
O621       Zr624   2.459       .  S
O621        C634   1.297       .  A
O622       Zr628   2.458       .  S
O622        C631   1.297       .  A
O623       Zr628   2.478       .  S
O623        C632   1.299       .  A
Zr624       O630   2.318       .  S
Zr624       O642   2.376       .  S
Zr625       O629   2.328       .  S
Zr625       O640   2.350       .  S
Zr626       O630   2.322       .  S
Zr626       O640   2.349       .  S
Zr627       O629   2.338       .  S
Zr627       O642   2.351       .  S
Zr628       O629   2.321       .  S
Zr628       O630   2.339       .  S
Zr628       O642   2.349       .  S
Zr628       O640   2.334       .  S
C631       C1068   1.475       .  S
C632       C1088   1.494       .  S
C633       C1108   1.499       .  S
C634       C1058   1.489       .  S
C635       C1128   1.476       .  S
C636       C1078   1.466       .  S
C637       C1098   1.468       .  S
C638       C1118   1.498       .  S
H639        O640   0.965       .  S
H641        O642   0.966       .  S
C643        C998   1.507       .  S
C643        C644   1.413       .  A
C644       C1051   1.465       .  S
C644       C1233   1.412   1_565  A
C645       C1041   1.496       .  S
C645       C1232   1.412       .  A
C645        C646   1.412       .  A
C646       C1021   1.505       .  S
C646        C647   1.425       .  A
C647       C1008   1.472       .  S
C647       C1824   1.424   1_455  A
C648       C1031   1.498       .  S
C648       C1823   1.424       .  A
C649       C2257   1.457   1_455  S
C649        C650   1.397       .  A
C649        C654   1.392       .  A
C650        C651   1.403       .  A
C650        H655   1.084   1_455  S
C651       C1011   1.482       .  S
C651        C652   1.404       .  A
C652        C653   1.402       .  A
C652        H656   1.083       .  S
C653        C988   1.464       .  S
C653        C654   1.393       .  A
C654        H657   1.085       .  S
C658        C981   1.513       .  S
C658        C663   1.425       .  A
C659        C660   1.409       .  A
C659        H664   1.083       .  S
C660       C1158   1.486       .  S
C660        C661   1.387       .  A
C661        C662   1.397       .  A
C661        H665   1.085       .  S
C662       C1038   1.497       .  S
C663        H666   1.083       .  S
C667       C1168   1.466       .  S
C667        C668   1.400       .  A
C667        C672   1.395       .  A
C668        C669   1.403       .  A
C668        H673   1.084       .  S
C669       C1028   1.497       .  S
C669        C670   1.414       .  A
C670        C671   1.418       .  A
C671        C672   1.400       .  A
C672        H675   1.084       .  S
C676        C961   1.488       .  S
C676       C1853   1.418   1_455  A
C676        C681   1.397       .  A
C677       C1852   1.418       .  A
C677        C678   1.414       .  A
C677        H682   1.082       .  S
C678       C1091   1.483       .  S
C678        C679   1.395       .  A
C679        C680   1.388       .  A
C679        H683   1.085       .  S
C680       C1048   1.451       .  S
C680       C1857   1.390       .  A
C681       C1856   1.390   1_455  A
C681        H684   1.084       .  S
C685       C1131   1.497       .  S
C685        C686   1.419       .  A
C685        C690   1.406       .  A
C686        C687   1.414       .  A
C686        H691   1.083       .  S
C687       C1018   1.485       .  S
C687        C688   1.398       .  A
C688        C689   1.399       .  A
C688        H692   1.085       .  S
C689        C951   1.479       .  S
C689        C690   1.398       .  A
C690        H693   1.084       .  S
C694       C1121   1.501       .  S
C694        C695   1.423       .  A
C694        C699   1.402       .  A
C695        C696   1.430       .  A
C695        H700   1.074       .  S
C696       C1001   1.534       .  S
C696        C697   1.408       .  A
C697        C698   1.393       .  A
C697        H701   1.075       .  S
C698        C941   1.476       .  S
C698        C699   1.399       .  A
C699        H702   1.084       .  S
O703       Zr739   2.393       .  S
O703        C714   1.284       .  A
O704       Zr738   2.420       .  S
O704        C715   1.289       .  A
O705       Zr711   2.382       .  S
O705        C716   1.281       .  A
O706       Zr711   2.397       .  S
O706        C717   1.284       .  A
O707       Zr741   2.487       .  S
O707        C717   1.301       .  A
O708       Zr740   2.484       .  S
O708        C716   1.299       .  A
O709       Zr711   2.430       .  S
O709        C715   1.290       .  A
O710       Zr711   2.450       .  S
O710        C714   1.294       .  A
Zr711       O712   2.331       .  S
Zr711       O713   2.327       .  S
Zr711       O721   2.327       .  S
Zr711       O719   2.339       .  S
O712       Zr738   2.319       .  S
O712       Zr741   2.328       .  S
O713       Zr739   2.312       .  S
O713       Zr740   2.342       .  S
C714        C991   1.468       .  S
C715        C898   1.482       .  S
C716        C958   1.463       .  S
C717        C908   1.491       .  S
H718        O719   0.965       .  S
O719       Zr738   2.351       .  S
O719       Zr740   2.345       .  S
H720        O721   0.965       .  S
O721       Zr739   2.359       .  S
O721       Zr741   2.348       .  S
O722       Zr738   2.415       .  S
O722        C745   1.287       .  A
O723       Zr739   2.388       .  S
O723        C746   1.284       .  A
O724       Zr740   2.433       .  S
O724        C747   1.292       .  A
O725       Zr741   2.393       .  S
O725        C748   1.284       .  A
O726       Zr741   2.402       .  S
O726        C749   1.288       .  A
O727       Zr740   2.381       .  S
O727        C750   1.282       .  A
O728       Zr742   2.396       .  S
O728        C751   1.285       .  A
O729       Zr742   2.399       .  S
O729        C752   1.286       .  A
O730       Zr740   2.502       .  S
O730        C751   1.303       .  A
O731       Zr741   2.485       .  S
O731        C752   1.299       .  A
O732       Zr738   2.420       .  S
O732        C747   1.289       .  A
O733       Zr739   2.548       .  S
O733        C750   1.312       .  A
O734       Zr739   2.471       .  S
O734        C749   1.299       .  A
O735       Zr738   2.497       .  S
O735        C748   1.302       .  A
O736       Zr742   2.473       .  S
O736        C745   1.298       .  A
O737       Zr742   2.478       .  S
O737        C746   1.300       .  A
Zr738       O744   2.360       .  S
Zr738       O756   2.322       .  S
Zr739       O743   2.356       .  S
Zr739       O754   2.324       .  S
Zr740       O744   2.340       .  S
Zr740       O754   2.341       .  S
Zr741       O743   2.340       .  S
Zr741       O756   2.335       .  S
Zr742       O743   2.330       .  S
Zr742       O744   2.336       .  S
Zr742       O756   2.339       .  S
Zr742       O754   2.344       .  S
C745        C921   1.473       .  S
C746        C938   1.483       .  S
C747        C931   1.454       .  S
C748        C878   1.479       .  S
C749        C948   1.481       .  S
C750        C978   1.500       .  S
C751        C968   1.487       .  S
C752        C891   1.472       .  S
H753        O754   0.964       .  S
H755        O756   0.965       .  S
C757       C1111   1.507   1_554  S
C757        C758   1.419       .  A
C757        C762   1.417       .  A
C758        C759   1.412       .  A
C758        H763   1.083       .  S
C759       C2087   1.491       .  S
C759        C760   1.392       .  A
C760        C761   1.398       .  A
C760       H1940   1.085       .  S
C761        C868   1.487       .  S
C761        C762   1.412       .  A
C762        H765   1.083   1_554  S
H764       C1936   1.085   1_455  S
C766        C871   1.484       .  S
C766       C1947   1.411       .  A
C767        C821   1.464       .  S
C767        C768   1.400       .  A
C768        C858   1.483       .  S
C768       C1945   1.405       .  A
C769        C848   1.492       .  S
C769       C1944   1.405   1_455  A
C769        C770   1.418   1_565  A
C770        C838   1.468       .  S
C771        C828   1.490       .  S
C771       C1942   1.411   1_455  A
C772        C928   1.472   1_556  S
C772        C773   1.398       .  A
C772        C777   1.400       .  A
C773        H778   1.084       .  S
C774       C1151   1.459       .  S
C774        C775   1.399       .  A
C775        H779   1.084       .  S
C776        C841   1.476   1_565  S
C776        C777   1.403       .  A
C777        H780   1.083   1_556  S
C781        C901   1.459       .  S
C781       C1958   1.388   1_454  A
C781        C786   1.400       .  A
C782       C1957   1.388   1_556  A
C782        C783   1.391       .  A
C782        H787   1.086       .  S
C783       C1101   1.472       .  S
C783        C784   1.408       .  A
C784        C785   1.416       .  A
C784        H788   1.083       .  S
C785        C851   1.493       .  S
C785       C1962   1.408   1_556  A
C786       C1961   1.408   1_454  A
C786        H789   1.084       .  S
C790        C881   1.503       .  S
C790        C791   1.414       .  A
C790        C795   1.412       .  A
C791        C792   1.409       .  A
C791        H796   1.083       .  S
C792        C831   1.486       .  S
C792        C793   1.403       .  A
C793        C794   1.402       .  A
C793        H797   1.084       .  S
C794       C1061   1.489       .  S
C794        C795   1.406       .  A
C795        H798   1.083       .  S
C799        C800   1.416       .  A
C799        C804   1.398       .  A
C800        C801   1.413       .  A
C800        H805   1.083       .  S
C801        C918   1.477       .  S
C801        C802   1.396       .  A
C802        C803   1.392       .  A
C802        H806   1.085       .  S
C803        C818   1.463       .  S
C803        C804   1.395       .  A
C808       C1071   1.469   1_554  S
C808        C809   1.402       .  A
C808        C813   1.395       .  A
C809        C810   1.403       .  A
C809        H814   1.084       .  S
C810        C888   1.481       .  S
C810        C811   1.412       .  A
C811        C812   1.406       .  A
C811        H815   1.084       .  S
C812        C861   1.485       .  S
C812        C813   1.397       .  A
C813        H816   1.085   1_554  S
C817        C818   1.408       .  A
C817        C822   1.392   1_556  A
C817        F824   1.358   1_556  S
C818        C819   1.401       .  A
C819        C820   1.389       .  A
C819        F826   1.358       .  S
C820        C821   1.402       .  A
C820        F825   1.358       .  S
C821        C822   1.397   1_556  A
C822        F823   1.357       .  S
C827        C828   1.406   1_554  A
C827        C832   1.405   1_554  A
C827        F834   1.357       .  S
C828        C829   1.405       .  A
C829        C830   1.400       .  A
C829        F836   1.357       .  S
C830        C831   1.406       .  A
C830        F835   1.358       .  S
C831        C832   1.407       .  A
C832        F833   1.357   1_556  S
C837        C842   1.392       .  A
C837        F844   1.358       .  S
C838        C839   1.401       .  A
C839        C840   1.396       .  A
C839        F846   1.358       .  S
C840        C841   1.408       .  A
C840        F845   1.358       .  S
C842        F843   1.358       .  S
C847        C848   1.405       .  A
C847        C852   1.401       .  A
C847        F854   1.357       .  S
C848       C2025   1.403   1_556  A
C849       C2024   1.403   1_554  A
C849        C850   1.400       .  A
C849        F856   1.357       .  S
C850        C851   1.412   1_554  A
C850        F855   1.358       .  S
C851       C2028   1.409       .  A
C852       C2027   1.409   1_455  A
C852        F853   1.357       .  S
C857        C858   1.398       .  A
C857        C862   1.393       .  A
C857        F864   1.357       .  S
C858        C859   1.406   1_556  A
C859        C860   1.400       .  A
C859        F866   1.358       .  S
C860        C861   1.406       .  A
C860        F865   1.357       .  S
C861        C862   1.413   1_554  A
C862        F863   1.357       .  S
C867       C2044   1.409       .  A
C867        C872   1.393       .  A
C867        F874   1.358       .  S
C868       C2043   1.409       .  A
C868        C869   1.409   1_554  A
C869        C870   1.406       .  A
C869        F876   1.357       .  S
C870        C871   1.406       .  A
C870        F875   1.357       .  S
C871       C2048   1.401   1_556  A
C872       C2047   1.401   1_554  A
C872        F873   1.358       .  S
C877        C878   1.405   1_556  A
C877        C882   1.410       .  A
C877        F884   1.358   1_556  S
C878        C879   1.405       .  A
C879        C880   1.397   1_554  A
C879        F886   1.359       .  S
C880        C881   1.411       .  A
C880        F885   1.358       .  S
C881        C882   1.415       .  A
C882        F883   1.357       .  S
C887        C888   1.402       .  A
C887        C892   1.391       .  A
C887        F894   1.359       .  S
C888        C889   1.411       .  A
C889        C890   1.409       .  A
C889        F896   1.357       .  S
C890        C891   1.404       .  A
C890        F895   1.357       .  S
C891        C892   1.406       .  A
C892        F893   1.358       .  S
C897        C898   1.414       .  A
C897        C902   1.398       .  A
C897        F904   1.358       .  S
C898        C899   1.414       .  A
C899        C900   1.389       .  A
C899        F906   1.358       .  S
C900        C901   1.397       .  A
C900        F905   1.359   1_554  S
C901        C902   1.400       .  A
C902        F903   1.358   1_455  S
C907        C908   1.407       .  A
C907        C912   1.402       .  A
C907        F914   1.357       .  S
C908        C909   1.416       .  A
C909        C910   1.402       .  A
C909        F916   1.358       .  S
C910        C911   1.402       .  A
C910       F2091   1.358   1_455  S
C911       C1935   1.491   1_455  S
C911        C912   1.412       .  A
C912        F913   1.358       .  S
F915       C2086   1.358       .  S
C917        C918   1.405   1_554  A
C917        C922   1.401       .  A
C917        F924   1.358       .  S
C918        C919   1.407       .  A
C919        C920   1.400       .  A
C919        F926   1.358       .  S
C920        C921   1.404   1_556  A
C920        F925   1.358       .  S
C921        C922   1.405       .  A
C922        F923   1.358       .  S
C927        C928   1.411       .  A
C927        C932   1.394       .  A
C927        F934   1.358       .  S
C928        C929   1.405       .  A
C929        C930   1.392       .  A
C929        F936   1.358       .  S
C930        C931   1.401       .  A
C930        F935   1.355       .  S
C931        C932   1.398       .  A
C932        F933   1.358       .  S
C937        C938   1.413       .  A
C937        C942   1.392       .  A
C937        F944   1.359       .  S
C938        C939   1.408       .  A
C939        C940   1.403       .  A
C939        F946   1.358       .  S
C940        C941   1.408       .  A
C940        F945   1.358       .  S
C941        C942   1.400       .  A
C942        F943   1.359       .  S
C947        C948   1.407       .  A
C947        C952   1.401       .  A
C947        F954   1.358       .  S
C948        C949   1.413       .  A
C949        C950   1.392       .  A
C949        F956   1.359       .  S
C950        C951   1.401       .  A
C950        F955   1.358       .  S
C951        C952   1.409       .  A
C952        F953   1.358       .  S
C957        C958   1.405       .  A
C957        C962   1.394       .  A
C957        F964   1.357       .  S
C958        C959   1.398       .  A
C959        C960   1.401       .  A
C959        F966   1.358       .  S
C960        C961   1.417       .  A
C960        F965   1.358       .  S
C961        C962   1.405       .  A
C962        F963   1.358       .  S
C967        C968   1.414       .  A
C967        C972   1.390       .  A
C967        F974   1.356       .  S
C968        C969   1.403       .  A
C969        C970   1.410       .  A
C969        F976   1.357       .  S
C970        C971   1.419       .  A
C970        F975   1.357   1_565  S
C971        C972   1.401       .  A
C972        F973   1.358       .  S
C977        C978   1.410       .  A
C977        C982   1.417       .  A
C977        F984   1.354       .  S
C978        C979   1.411       .  A
C979        C980   1.406       .  A
C979        F986   1.359       .  S
C980        C981   1.411       .  A
C980        F985   1.358       .  S
C981        C982   1.414       .  A
C982        F983   1.357       .  S
C987        C988   1.404       .  A
C987        C992   1.392       .  A
C987        F994   1.358       .  S
C988        C989   1.400       .  A
C989        C990   1.394       .  A
C989        F996   1.358       .  S
C990        C991   1.411       .  A
C990        F995   1.359       .  S
C991        C992   1.405       .  A
C992        F993   1.358       .  S
C997        C998   1.407       .  A
C997       C1002   1.405       .  A
C997       F1004   1.356       .  S
C998        C999   1.397       .  A
C999       C1000   1.398       .  A
C999       F1006   1.355       .  S
C1000      C1001   1.430       .  A
C1000      F1005   1.356       .  S
C1001      C1002   1.420       .  A
C1002      F1003   1.352       .  S
C1007      C1008   1.399       .  A
C1007      C1012   1.398       .  A
C1007      F1014   1.357       .  S
C1008      C1009   1.402       .  A
C1009      C1010   1.391       .  A
C1009      F1016   1.359       .  S
C1010      C1011   1.407       .  A
C1010      F1015   1.358       .  S
C1011      C1012   1.413       .  A
C1012      F1013   1.358       .  S
C1017      C1018   1.405       .  A
C1017      C1022   1.406       .  A
C1017      F1024   1.358       .  S
C1018      C1019   1.405       .  A
C1019      C1020   1.403       .  A
C1019      F1026   1.358       .  S
C1020      C1021   1.410       .  A
C1020      F1025   1.357       .  S
C1021      C1022   1.410       .  A
C1022      F1023   1.355       .  S
C1027      C1028   1.413       .  A
C1027      C1032   1.404       .  A
C1027      F1034   1.358       .  S
C1028      C1029   1.408       .  A
C1029      C1030   1.404       .  A
C1029      F1036   1.358       .  S
C1030      C1031   1.409       .  A
C1030      F1035   1.357       .  S
C1031      C1032   1.404       .  A
C1032      F1033   1.357       .  S
C1037      C1042   1.410       .  A
C1037      F1044   1.357       .  S
C1038      C1039   1.415       .  A
C1039      C1040   1.392       .  A
C1039      F1046   1.359       .  S
C1040      C1041   1.399       .  A
C1040      F1045   1.359       .  S
C1042      F1043   1.357       .  S
C1047      C1048   1.400       .  A
C1047      C1052   1.390       .  A
C1047      F1054   1.358       .  S
C1048      C2225   1.401       .  A
C1049      C2224   1.401       .  A
C1049      C1050   1.384   1_655  A
C1049      F1056   1.358   1_655  S
C1050      C2227   1.401   1_455  A
C1050      F1055   1.357       .  S
C1051      C2226   1.401       .  A
C1051      C1052   1.402       .  A
C1052      F1053   1.358       .  S
C1057      C1058   1.408       .  A
C1057      C1062   1.401       .  A
C1057      F1064   1.357       .  S
C1058      C1059   1.410       .  A
C1059      C1060   1.403       .  A
C1059      F1066   1.358       .  S
C1060      C1061   1.406       .  A
C1060      F1065   1.358       .  S
C1061      C1062   1.408       .  A
C1062      F1063   1.358       .  S
C1067      C1068   1.403       .  A
C1067      C1072   1.391       .  A
C1067      F1074   1.358       .  S
C1068      C1069   1.415       .  A
C1069      C1070   1.397       .  A
C1069      F1076   1.358       .  S
C1070      C1071   1.398       .  A
C1070      F1075   1.358   1_556  S
C1071      C1072   1.406       .  A
C1072      F1073   1.357       .  S
C1077      C1078   1.410       .  A
C1077      C1082   1.395       .  A
C1077      F1084   1.358       .  S
C1078      C1079   1.404       .  A
C1079      C1080   1.387       .  A
C1079      F1086   1.356       .  S
C1080      C1081   1.400       .  A
C1080      F1085   1.359       .  S
C1081      C1825   1.457       .  S
C1081      C1082   1.400       .  A
C1082      F2259   1.358       .  S
F1083      C2258   1.358   1_455  S
C1087      C1088   1.408       .  A
C1087      C1092   1.399       .  A
C1087      F1094   1.358       .  S
C1088      C1089   1.420       .  A
C1089      C1090   1.397       .  A
C1089      F1096   1.358       .  S
C1090      C1091   1.398       .  A
C1090      F1095   1.358       .  S
C1091      C1092   1.411       .  A
C1092      F1093   1.358       .  S
C1097      C1098   1.407       .  A
C1097      C1102   1.395       .  A
C1097      F1104   1.357       .  S
C1098      C1099   1.406       .  A
C1099      C1100   1.400       .  A
C1099      F1106   1.358       .  S
C1100      C1101   1.405       .  A
C1100      F1105   1.358       .  S
C1101      C1102   1.403       .  A
C1102      F1103   1.358       .  S
C1107      C1108   1.413       .  A
C1107      C1112   1.400       .  A
C1107      F1114   1.356       .  S
C1108      C1109   1.409       .  A
C1109      C1110   1.417       .  A
C1109      F1116   1.356       .  S
C1110      C1111   1.415       .  A
C1110      F1115   1.357   1_556  S
C1111      C1112   1.405       .  A
C1112      F1113   1.358       .  S
C1117      C1118   1.408       .  A
C1117      C1122   1.418       .  A
C1117      F1124   1.357       .  S
C1118      C1119   1.411       .  A
C1119      C1120   1.396       .  A
C1119      F1126   1.354       .  S
C1120      C1121   1.402       .  A
C1120      F1125   1.359       .  S
C1121      C1122   1.417       .  A
C1122      F1123   1.357       .  S
C1127      C1128   1.407       .  A
C1127      C1132   1.410       .  A
C1127      F1134   1.358       .  S
C1128      C1129   1.405       .  A
C1129      C1130   1.395       .  A
C1129      F1136   1.359       .  S
C1130      C1131   1.411       .  A
C1130      F1135   1.358       .  S
C1131      C1132   1.411       .  A
C1132      F1133   1.357       .  S
C1137      C1138   1.406       .  A
C1137      C1142   1.397       .  A
C1137      F1144   1.357       .  S
C1138      C1139   1.401       .  A
C1139      C1140   1.404       .  A
C1139      F1146   1.358       .  S
C1140      C1141   1.413       .  A
C1140      F1145   1.358       .  S
C1141      C1142   1.403       .  A
C1142      F1143   1.358       .  S
C1147      C1148   1.414       .  A
C1147      C1152   1.397       .  A
C1147      F1154   1.358       .  S
C1148      C1149   1.413       .  A
C1149      C1150   1.388       .  A
C1149      F1156   1.358       .  S
C1150      C1151   1.397       .  A
C1150      F1155   1.359       .  S
C1151      C1152   1.399       .  A
C1152      F1153   1.358       .  S
C1157      C1158   1.402       .  A
C1157      C1162   1.399       .  A
C1157      F1164   1.358       .  S
C1158      C1159   1.412       .  A
C1159      C1160   1.403       .  A
C1159      F1166   1.358       .  S
C1160      C1161   1.405       .  A
C1160      F1165   1.356       .  S
C1161      C1162   1.413       .  A
C1162      F1163   1.358       .  S
C1167      C1168   1.403       .  A
C1167      C1172   1.401       .  A
C1167      F1174   1.357       .  S
C1168      C1169   1.395       .  A
C1169      C1170   1.390       .  A
C1169      F1176   1.359       .  S
C1170      C1171   1.418       .  A
C1170      F1175   1.358       .  S
C1171      C1172   1.411       .  A
C1172      F1173   1.357       .  S
O1177     Zr1213   2.394       .  S
O1177      C1188   1.284       .  A
O1178     Zr1212   2.415       .  S
O1178      C1189   1.289       .  A
O1179     Zr1185   2.402       .  S
O1179      C1190   1.284       .  A
O1180     Zr1185   2.386       .  S
O1180      C1191   1.283       .  A
O1181     Zr1215   2.499       .  S
O1181      C1191   1.304       .  A
O1182     Zr1214   2.485       .  S
O1182      C1190   1.299       .  A
O1183     Zr1185   2.428       .  S
O1183      C1189   1.290       .  A
O1184     Zr1185   2.461       .  S
O1184      C1188   1.296       .  A
Zr1185     O1186   2.343       .  S
Zr1185     O1187   2.325       .  S
Zr1185     O1195   2.326       .  S
Zr1185     O1193   2.333       .  S
O1186     Zr1212   2.352       .  S
O1186     Zr1215   2.347       .  S
O1187     Zr1213   2.347       .  S
O1187     Zr1214   2.344       .  S
C1188      C1759   1.488       .  S
C1189      C1736   1.481       .  S
C1190      C1726   1.468       .  S
C1191      C1749   1.483       .  S
H1192      O1193   0.964       .  S
O1193     Zr1212   2.316       .  S
O1193     Zr1214   2.333       .  S
H1194      O1195   0.964       .  S
O1195     Zr1213   2.315       .  S
O1195     Zr1215   2.351       .  S
O1196     Zr1212   2.401       .  S
O1196      C1219   1.286       .  A
O1197     Zr1213   2.393       .  S
O1197      C1220   1.283       .  A
O1198     Zr1214   2.380       .  S
O1198      C1221   1.283       .  A
O1199     Zr1215   2.444       .  S
O1199      C1222   1.295       .  A
O1200     Zr1215   2.388       .  S
O1200      C1223   1.284       .  A
O1201     Zr1214   2.404       .  S
O1201      C1224   1.288       .  A
O1202     Zr1216   2.383       .  S
O1202      C1225   1.279       .  A
O1203     Zr1216   2.409       .  S
O1203      C1226   1.287       .  A
O1204     Zr1214   2.484       .  S
O1204      C1225   1.298       .  A
O1205     Zr1215   2.512       .  S
O1205      C1226   1.304       .  A
O1206     Zr1212   2.546       .  S
O1206      C1221   1.312       .  A
O1207     Zr1213   2.443       .  S
O1207      C1224   1.294       .  A
O1208     Zr1213   2.498       .  S
O1208      C1223   1.302       .  A
O1209     Zr1212   2.459       .  S
O1209      C1222   1.297       .  A
O1210     Zr1216   2.458       .  S
O1210      C1219   1.297       .  A
O1211     Zr1216   2.478       .  S
O1211      C1220   1.299       .  A
Zr1212     O1218   2.318       .  S
Zr1212     O1230   2.376       .  S
Zr1213     O1217   2.328       .  S
Zr1213     O1228   2.350       .  S
Zr1214     O1218   2.322       .  S
Zr1214     O1228   2.349       .  S
Zr1215     O1217   2.338       .  S
Zr1215     O1230   2.351       .  S
Zr1216     O1217   2.321       .  S
Zr1216     O1218   2.339       .  S
Zr1216     O1230   2.349       .  S
Zr1216     O1228   2.334       .  S
C1219      C1656   1.475       .  S
C1220      C1676   1.494       .  S
C1221      C1696   1.499       .  S
C1222      C1646   1.489       .  S
C1223      C1716   1.476       .  S
C1224      C1666   1.466       .  S
C1225      C1686   1.468       .  S
C1226      C1706   1.498       .  S
H1227      O1228   0.965       .  S
H1229      O1230   0.966       .  S
C1231      C1586   1.507       .  S
C1231      C1232   1.413   1_655  A
C1231      C1824   1.415       .  A
C1232      C1639   1.465   1_455  S
C1233      C1629   1.496   1_545  S
C1233      C1234   1.412       .  A
C1234      C1609   1.505       .  S
C1234      C1235   1.425       .  A
C1235      C1596   1.472       .  S
C1236      C1619   1.498       .  S
C1236      C1819   1.415   1_545  A
C1237      C1238   1.397       .  A
C1237      C1242   1.392       .  A
C1238      C1239   1.403       .  A
C1238      H1243   1.084       .  S
C1239      C1599   1.482       .  S
C1239      C1240   1.404       .  A
C1240      C1241   1.402       .  A
C1240      H1244   1.083       .  S
C1241      C1576   1.464       .  S
C1241      C1242   1.393       .  A
C1242      H1245   1.085       .  S
C1246      C1569   1.513       .  S
C1246      C1835   1.418       .  A
C1246      C1251   1.425       .  A
C1247      C1834   1.418       .  A
C1247      C1248   1.409   1_565  A
C1247      H1252   1.083       .  S
C1248      C1746   1.486       .  S
C1248      C1249   1.387       .  A
C1249      C1250   1.397   1_545  A
C1249      H1253   1.085       .  S
C1250      C1626   1.497       .  S
C1250      C1839   1.419       .  A
C1251      C1838   1.419       .  A
C1251      H1254   1.083       .  S
C1255      C1756   1.466       .  S
C1255      C1256   1.400       .  A
C1255      C1260   1.395       .  A
C1256      C1257   1.403       .  A
C1256      H1261   1.084       .  S
C1257      C1616   1.497       .  S
C1257      C1258   1.414       .  A
C1258      C1259   1.418       .  A
C1258      H1850   1.083   1_545  S
C1259      C2147   1.494   1_545  S
C1259      C1260   1.400       .  A
C1260      H1263   1.084       .  S
H1262      C1846   1.083       .  S
C1264      C1549   1.488       .  S
C1264      C1269   1.397       .  A
C1265      C1266   1.414       .  A
C1265      H1270   1.082       .  S
C1266      C1679   1.483       .  S
C1266      C1267   1.395       .  A
C1267      C1268   1.388       .  A
C1267      H1271   1.085       .  S
C1268      C1636   1.451       .  S
C1269      H1272   1.084       .  S
C1273      C1719   1.497       .  S
C1273      C1274   1.419       .  A
C1273      C1278   1.406       .  A
C1274      C1275   1.414       .  A
C1274      H1279   1.083       .  S
C1275      C1606   1.485       .  S
C1275      C1276   1.398       .  A
C1276      C1277   1.399       .  A
C1276      H1280   1.085       .  S
C1277      C1539   1.479       .  S
C1277      C1278   1.398       .  A
C1278      H1281   1.084       .  S
C1282      C1709   1.501       .  S
C1282      C1283   1.423       .  A
C1282      C1287   1.402       .  A
C1283      C1284   1.430       .  A
C1283      H1288   1.074       .  S
C1284      C1589   1.534       .  S
C1284      C1285   1.408       .  A
C1285      C1286   1.393       .  A
C1285      H1289   1.075       .  S
C1286      C1529   1.476       .  S
C1286      C1287   1.399       .  A
C1287      H1290   1.084       .  S
O1291     Zr1327   2.393       .  S
O1291      C1302   1.284       .  A
O1292     Zr1326   2.420       .  S
O1292      C1303   1.289       .  A
O1293     Zr1299   2.382       .  S
O1293      C1304   1.281       .  A
O1294     Zr1299   2.397       .  S
O1294      C1305   1.284       .  A
O1295     Zr1329   2.487       .  S
O1295      C1305   1.301       .  A
O1296     Zr1328   2.484       .  S
O1296      C1304   1.299       .  A
O1297     Zr1299   2.430       .  S
O1297      C1303   1.290       .  A
O1298     Zr1299   2.450       .  S
O1298      C1302   1.294       .  A
Zr1299     O1300   2.331       .  S
Zr1299     O1301   2.327       .  S
Zr1299     O1309   2.327       .  S
Zr1299     O1307   2.339       .  S
O1300     Zr1326   2.319       .  S
O1300     Zr1329   2.328       .  S
O1301     Zr1327   2.312       .  S
O1301     Zr1328   2.342       .  S
C1302      C1579   1.468       .  S
C1303      C1486   1.482       .  S
C1304      C1546   1.463       .  S
C1305      C1496   1.491       .  S
H1306      O1307   0.965       .  S
O1307     Zr1326   2.351       .  S
O1307     Zr1328   2.345       .  S
H1308      O1309   0.965       .  S
O1309     Zr1327   2.359       .  S
O1309     Zr1329   2.348       .  S
O1310     Zr1326   2.415       .  S
O1310      C1333   1.287       .  A
O1311     Zr1327   2.388       .  S
O1311      C1334   1.284       .  A
O1312     Zr1328   2.433       .  S
O1312      C1335   1.292       .  A
O1313     Zr1329   2.393       .  S
O1313      C1336   1.284       .  A
O1314     Zr1329   2.402       .  S
O1314      C1337   1.288       .  A
O1315     Zr1328   2.381       .  S
O1315      C1338   1.282       .  A
O1316     Zr1330   2.396       .  S
O1316      C1339   1.285       .  A
O1317     Zr1330   2.399       .  S
O1317      C1340   1.286       .  A
O1318     Zr1328   2.502       .  S
O1318      C1339   1.303       .  A
O1319     Zr1329   2.485       .  S
O1319      C1340   1.299       .  A
O1320     Zr1326   2.420       .  S
O1320      C1335   1.289       .  A
O1321     Zr1327   2.548       .  S
O1321      C1338   1.312       .  A
O1322     Zr1327   2.471       .  S
O1322      C1337   1.299       .  A
O1323     Zr1326   2.497       .  S
O1323      C1336   1.302       .  A
O1324     Zr1330   2.473       .  S
O1324      C1333   1.298       .  A
O1325     Zr1330   2.478       .  S
O1325      C1334   1.300       .  A
Zr1326     O1332   2.360       .  S
Zr1326     O1344   2.322       .  S
Zr1327     O1331   2.356       .  S
Zr1327     O1342   2.324       .  S
Zr1328     O1332   2.340       .  S
Zr1328     O1342   2.341       .  S
Zr1329     O1331   2.340       .  S
Zr1329     O1344   2.335       .  S
Zr1330     O1331   2.330       .  S
Zr1330     O1332   2.336       .  S
Zr1330     O1344   2.339       .  S
Zr1330     O1342   2.344       .  S
C1333      C1509   1.473       .  S
C1334      C1526   1.483       .  S
C1335      C1519   1.454       .  S
C1336      C1466   1.479       .  S
C1337      C1536   1.481       .  S
C1338      C1566   1.500       .  S
C1339      C1556   1.487       .  S
C1340      C1479   1.472       .  S
H1341      O1342   0.964       .  S
H1343      O1344   0.965       .  S
C1345      C1699   1.507   1_554  S
C1345      C1346   1.419       .  A
C1345      C1350   1.417       .  A
C1346      C1347   1.412       .  A
C1346      H1351   1.083       .  S
C1347      C1348   1.392       .  A
C1348      C1349   1.398       .  A
C1349      C1456   1.487       .  S
C1349      C1350   1.412       .  A
C1350      H1353   1.083   1_554  S
C1354      C1459   1.484       .  S
C1354      C1943   1.405   1_545  A
C1355      C1409   1.464       .  S
C1355      C1942   1.405       .  A
C1355      C1356   1.400       .  A
C1356      C1446   1.483       .  S
C1357      C1436   1.492       .  S
C1357      C1358   1.418       .  A
C1358      C1426   1.468       .  S
C1358      C1947   1.419       .  A
C1359      C1416   1.490       .  S
C1359      C1946   1.419       .  A
C1360      C1516   1.472   1_556  S
C1360      C1361   1.398       .  A
C1360      C1365   1.400       .  A
C1361      C1950   1.393       .  A
C1361      H1366   1.084       .  S
C1362      C1739   1.459       .  S
C1362      C1949   1.393   1_545  A
C1362      C1363   1.399       .  A
C1363      C1952   1.401   1_545  A
C1363      H1367   1.084       .  S
C1364      C1429   1.476       .  S
C1364      C1951   1.401       .  A
C1364      C1365   1.403       .  A
C1365      H1368   1.083   1_556  S
C1369      C1489   1.459       .  S
C1369      C1374   1.400       .  A
C1370      C1371   1.391       .  A
C1370      H1375   1.086       .  S
C1371      C1689   1.472       .  S
C1371      C1372   1.408       .  A
C1372      C1373   1.416       .  A
C1372      H1376   1.083       .  S
C1373      C1439   1.493       .  S
C1374      H1377   1.084       .  S
C1378      C1469   1.503       .  S
C1378      C1379   1.414       .  A
C1378      C1383   1.412       .  A
C1379      C1380   1.409       .  A
C1379      H1384   1.083       .  S
C1380      C1419   1.486       .  S
C1380      C1381   1.403       .  A
C1381      C1382   1.402       .  A
C1381      H1385   1.084       .  S
C1382      C1649   1.489       .  S
C1382      C1383   1.406       .  A
C1383      H1386   1.083       .  S
C1387      C2317   1.484       .  S
C1387      C1388   1.416       .  A
C1387      C1392   1.398       .  A
C1388      C1389   1.413       .  A
C1388      H1393   1.083       .  S
C1389      C1506   1.477       .  S
C1389      C1390   1.396       .  A
C1390      C1391   1.392       .  A
C1390      H1394   1.085       .  S
C1391      C1406   1.463       .  S
C1391      C1392   1.395       .  A
C1392      H1983   1.085       .  S
H1395      C1980   1.085   1_545  S
C1396      C1659   1.469   1_554  S
C1396      C1397   1.402       .  A
C1396      C1401   1.395       .  A
C1397      C1398   1.403       .  A
C1397      H1402   1.084       .  S
C1398      C1476   1.481       .  S
C1398      C1399   1.412       .  A
C1399      C1400   1.406       .  A
C1399      H1403   1.084       .  S
C1400      C1449   1.485       .  S
C1400      C1401   1.397       .  A
C1401      H1404   1.085   1_554  S
C1405      C1406   1.408       .  A
C1405      C1410   1.392   1_556  A
C1405      F1412   1.358   1_556  S
C1406      C1407   1.401       .  A
C1407      C1408   1.389       .  A
C1407      F1414   1.358       .  S
C1408      C1409   1.402       .  A
C1408      F1413   1.358       .  S
C1409      C1410   1.397   1_556  A
C1410      F1411   1.357       .  S
C1415      C1416   1.406   1_554  A
C1415      C1420   1.405   1_554  A
C1415      F1422   1.357       .  S
C1416      C1417   1.405       .  A
C1417      C1418   1.400       .  A
C1417      F1424   1.357       .  S
C1418      C1419   1.406       .  A
C1418      F1423   1.358       .  S
C1419      C1420   1.407       .  A
C1420      F1421   1.357   1_556  S
C1425      C2014   1.399   1_554  A
C1425      C1430   1.392       .  A
C1425      F1432   1.358       .  S
C1426      C2013   1.399   1_556  A
C1426      C1427   1.401       .  A
C1427      C1428   1.396       .  A
C1427      F1434   1.358       .  S
C1428      C1429   1.408       .  A
C1428      F1433   1.358       .  S
C1429      C2018   1.408   1_556  A
C1430      C2017   1.408   1_554  A
C1430      F1431   1.358       .  S
C1435      C1436   1.405       .  A
C1435      C1440   1.401       .  A
C1435      F1442   1.357       .  S
C1437      C1438   1.400   1_455  A
C1437      F1444   1.357       .  S
C1438      C1439   1.412   1_554  A
C1438      F1443   1.358       .  S
C1440      F1441   1.357       .  S
C1445      C1446   1.398       .  A
C1445      C1450   1.393       .  A
C1445      F1452   1.357       .  S
C1446      C1447   1.406   1_556  A
C1447      C1448   1.400       .  A
C1447      F1454   1.358       .  S
C1448      C1449   1.406       .  A
C1448      F1453   1.357       .  S
C1449      C1450   1.413   1_554  A
C1450      F1451   1.357       .  S
C1455      C1460   1.393       .  A
C1455      F1462   1.358       .  S
C1456      C1457   1.409   1_554  A
C1457      C1458   1.406       .  A
C1457      F1464   1.357       .  S
C1458      C1459   1.406       .  A
C1458      F1463   1.357       .  S
C1460      F1461   1.358       .  S
C1465      C1466   1.405   1_556  A
C1465      C1470   1.410       .  A
C1465      F1472   1.358   1_556  S
C1466      C1467   1.405       .  A
C1467      C1468   1.397   1_554  A
C1467      F1474   1.359       .  S
C1468      C1469   1.411       .  A
C1468      F1473   1.358       .  S
C1469      C1470   1.415       .  A
C1470      F1471   1.357       .  S
C1475      C1476   1.402       .  A
C1475      C1480   1.391       .  A
C1475      F1482   1.359       .  S
C1476      C1477   1.411       .  A
C1477      C1478   1.409       .  A
C1477      F1484   1.357       .  S
C1478      C1479   1.404       .  A
C1478      F1483   1.357       .  S
C1479      C1480   1.406       .  A
C1480      F1481   1.358       .  S
C1485      C1486   1.414       .  A
C1485      C1490   1.398       .  A
C1485      F1492   1.358       .  S
C1486      C1487   1.414       .  A
C1487      C1488   1.389       .  A
C1487      F1494   1.358       .  S
C1488      C1489   1.397       .  A
C1488      F1493   1.359   1_554  S
C1489      C1490   1.400       .  A
C1490      F1491   1.358       .  S
C1495      C1496   1.407       .  A
C1495      C1500   1.402       .  A
C1495      F1502   1.357       .  S
C1496      C1497   1.416       .  A
C1497      C1498   1.402       .  A
C1497      F1504   1.358       .  S
C1498      C1499   1.402       .  A
C1499      C1500   1.412       .  A
C1500      F1501   1.358       .  S
C1505      C1506   1.405   1_554  A
C1505      C1510   1.401       .  A
C1505      F1512   1.358       .  S
C1506      C1507   1.407       .  A
C1507      C1508   1.400       .  A
C1507      F1514   1.358       .  S
C1508      C1509   1.404   1_556  A
C1508      F1513   1.358       .  S
C1509      C1510   1.405       .  A
C1510      F1511   1.358       .  S
C1515      C1516   1.411       .  A
C1515      C1520   1.394       .  A
C1515      F1522   1.358       .  S
C1516      C1517   1.405       .  A
C1517      C1518   1.392       .  A
C1517      F1524   1.358       .  S
C1518      C1519   1.401       .  A
C1518      F1523   1.355       .  S
C1519      C1520   1.398       .  A
C1520      F1521   1.358       .  S
C1525      C1526   1.413       .  A
C1525      C1530   1.392       .  A
C1525      F1532   1.359       .  S
C1526      C1527   1.408       .  A
C1527      C1528   1.403       .  A
C1527      F1534   1.358       .  S
C1528      C1529   1.408       .  A
C1528      F1533   1.358       .  S
C1529      C1530   1.400       .  A
C1530      F1531   1.359       .  S
C1535      C1536   1.407       .  A
C1535      C1540   1.401       .  A
C1535      F1542   1.358       .  S
C1536      C1537   1.413       .  A
C1537      C1538   1.392       .  A
C1537      F1544   1.359       .  S
C1538      C1539   1.401       .  A
C1538      F1543   1.358       .  S
C1539      C1540   1.409       .  A
C1540      F1541   1.358       .  S
C1545      C1546   1.405       .  A
C1545      C1550   1.394       .  A
C1545      F1552   1.357       .  S
C1546      C1547   1.398       .  A
C1547      C1548   1.401       .  A
C1547      F1554   1.358       .  S
C1548      C1549   1.417       .  A
C1548      F1553   1.358       .  S
C1549      C1550   1.405       .  A
C1550      F1551   1.358       .  S
C1555      C1556   1.414       .  A
C1555      C1560   1.390       .  A
C1555      F1562   1.356       .  S
C1556      C1557   1.403       .  A
C1557      C1558   1.410       .  A
C1557      F1564   1.357       .  S
C1558      C1559   1.419       .  A
C1558      F1563   1.357       .  S
C1559      C1847   1.494       .  S
C1559      C1560   1.401       .  A
C1560      F1561   1.358       .  S
C1565      C1566   1.410       .  A
C1565      C1570   1.417       .  A
C1565      F1572   1.354       .  S
C1566      C1567   1.411       .  A
C1567      C1568   1.406       .  A
C1567      F1574   1.359       .  S
C1568      C1569   1.411       .  A
C1568      F1573   1.358       .  S
C1569      C1570   1.414       .  A
C1570      F1571   1.357       .  S
C1575      C1576   1.404       .  A
C1575      C1580   1.392       .  A
C1575      F1582   1.358       .  S
C1576      C1577   1.400       .  A
C1577      C1578   1.394       .  A
C1577      F1584   1.358       .  S
C1578      C1579   1.411       .  A
C1578      F1583   1.359       .  S
C1579      C1580   1.405       .  A
C1580      F1581   1.358       .  S
C1585      C1586   1.407       .  A
C1585      C1590   1.405       .  A
C1585      F1592   1.356       .  S
C1586      C1587   1.397       .  A
C1587      C1588   1.398       .  A
C1587      F1594   1.355       .  S
C1588      C1589   1.430       .  A
C1588      F1593   1.356       .  S
C1589      C1590   1.420       .  A
C1590      F1591   1.352       .  S
C1595      C1596   1.399       .  A
C1595      C1600   1.398       .  A
C1595      F1602   1.357       .  S
C1596      C1597   1.402       .  A
C1597      C1598   1.391       .  A
C1597      F1604   1.359       .  S
C1598      C1599   1.407       .  A
C1598      F1603   1.358       .  S
C1599      C1600   1.413       .  A
C1600      F1601   1.358       .  S
C1605      C1606   1.405       .  A
C1605      C1610   1.406       .  A
C1605      F1612   1.358       .  S
C1606      C1607   1.405       .  A
C1607      C1608   1.403       .  A
C1607      F1614   1.358       .  S
C1608      C1609   1.410       .  A
C1608      F1613   1.357       .  S
C1609      C1610   1.410       .  A
C1610      F1611   1.355       .  S
C1615      C1616   1.413       .  A
C1615      C1620   1.404       .  A
C1615      F1622   1.358       .  S
C1616      C1617   1.408       .  A
C1617      C1618   1.404       .  A
C1617      F1624   1.358       .  S
C1618      C1619   1.409       .  A
C1618      F1623   1.357       .  S
C1619      C1620   1.404       .  A
C1620      F1621   1.357       .  S
C1625      C2214   1.409       .  A
C1625      C1630   1.410       .  A
C1625      F1632   1.357       .  S
C1626      C2213   1.409       .  A
C1626      C1627   1.415       .  A
C1627      C1628   1.392       .  A
C1627      F1634   1.359       .  S
C1628      C1629   1.399       .  A
C1628      F1633   1.359   1_565  S
C1629      C2218   1.410       .  A
C1630      C2217   1.410       .  A
C1630      F1631   1.357       .  S
C1635      C1636   1.400       .  A
C1635      C1640   1.390       .  A
C1635      F1642   1.358       .  S
C1637      C1638   1.384       .  A
C1637      F1644   1.358       .  S
C1638      F1643   1.357       .  S
C1639      C1640   1.402       .  A
C1640      F1641   1.358       .  S
C1645      C1646   1.408       .  A
C1645      C1650   1.401       .  A
C1645      F1652   1.357       .  S
C1646      C1647   1.410       .  A
C1647      C1648   1.403       .  A
C1647      F1654   1.358       .  S
C1648      C1649   1.406       .  A
C1648      F1653   1.358       .  S
C1649      C1650   1.408       .  A
C1650      F1651   1.358       .  S
C1655      C1656   1.403       .  A
C1655      C1660   1.391       .  A
C1655      F1662   1.358       .  S
C1656      C1657   1.415       .  A
C1657      C1658   1.397       .  A
C1657      F1664   1.358       .  S
C1658      C1659   1.398       .  A
C1658      F1663   1.358   1_556  S
C1659      C1660   1.406       .  A
C1660      F1661   1.357       .  S
C1665      C1666   1.410       .  A
C1665      C1670   1.395       .  A
C1665      F1672   1.358       .  S
C1666      C1667   1.404       .  A
C1667      C1668   1.387       .  A
C1667      F1674   1.356       .  S
C1668      C1669   1.400       .  A
C1668      F1673   1.359       .  S
C1669      C1670   1.400       .  A
C1675      C1676   1.408       .  A
C1675      C1680   1.399       .  A
C1675      F1682   1.358       .  S
C1676      C1677   1.420       .  A
C1677      C1678   1.397       .  A
C1677      F1684   1.358       .  S
C1678      C1679   1.398       .  A
C1678      F1683   1.358       .  S
C1679      C1680   1.411       .  A
C1680      F1681   1.358       .  S
C1685      C1686   1.407       .  A
C1685      C1690   1.395       .  A
C1685      F1692   1.357       .  S
C1686      C1687   1.406       .  A
C1687      C1688   1.400       .  A
C1687      F1694   1.358       .  S
C1688      C1689   1.405       .  A
C1688      F1693   1.358       .  S
C1689      C1690   1.403       .  A
C1690      F1691   1.358       .  S
C1695      C1696   1.413       .  A
C1695      C1700   1.400       .  A
C1695      F1702   1.356       .  S
C1696      C1697   1.409       .  A
C1697      C1698   1.417       .  A
C1697      F1704   1.356       .  S
C1698      C1699   1.415       .  A
C1698      F1703   1.357   1_556  S
C1699      C1700   1.405       .  A
C1700      F1701   1.358       .  S
C1705      C1706   1.408       .  A
C1705      C1710   1.418       .  A
C1705      F1712   1.357       .  S
C1706      C1707   1.411       .  A
C1707      C1708   1.396       .  A
C1707      F1714   1.354       .  S
C1708      C1709   1.402       .  A
C1708      F1713   1.359       .  S
C1709      C1710   1.417       .  A
C1710      F1711   1.357       .  S
C1715      C1716   1.407       .  A
C1715      C1720   1.410       .  A
C1715      F1722   1.358       .  S
C1716      C1717   1.405       .  A
C1717      C1718   1.395       .  A
C1717      F1724   1.359       .  S
C1718      C1719   1.411       .  A
C1718      F1723   1.358       .  S
C1719      C1720   1.411       .  A
C1720      F1721   1.357       .  S
C1725      C1726   1.406       .  A
C1725      C1730   1.397       .  A
C1725      F1732   1.357       .  S
C1726      C1727   1.401       .  A
C1727      C1728   1.404       .  A
C1727      F1734   1.358       .  S
C1728      C1729   1.413       .  A
C1728      F1733   1.358       .  S
C1729      C1975   1.484   1_545  S
C1729      C1730   1.403       .  A
C1730      F1731   1.358       .  S
C1735      C1736   1.414       .  A
C1735      C1740   1.397       .  A
C1735      F1742   1.358       .  S
C1736      C1737   1.413       .  A
C1737      C1738   1.388       .  A
C1737      F1744   1.358       .  S
C1738      C1739   1.397       .  A
C1738      F1743   1.359       .  S
C1739      C1740   1.399       .  A
C1740      F1741   1.358   1_545  S
C1745      C1746   1.402       .  A
C1745      C1750   1.399       .  A
C1745      F1752   1.358   1_545  S
C1746      C1747   1.412       .  A
C1747      C1748   1.403       .  A
C1747      F1754   1.358       .  S
C1748      C1749   1.405       .  A
C1748      F1753   1.356       .  S
C1749      C1750   1.413       .  A
C1750      F1751   1.358       .  S
C1755      C1756   1.403       .  A
C1755      C1760   1.401       .  A
C1755      F1762   1.357       .  S
C1756      C1757   1.395       .  A
C1757      C1758   1.390       .  A
C1757      F1764   1.359       .  S
C1758      C1759   1.418       .  A
C1758      F1763   1.358       .  S
C1759      C1760   1.411       .  A
C1760      F1761   1.357       .  S
O1765     Zr1801   2.394       .  S
O1765      C1776   1.284       .  A
O1766     Zr1800   2.415       .  S
O1766      C1777   1.289       .  A
O1767     Zr1773   2.402       .  S
O1767      C1778   1.284       .  A
O1768     Zr1773   2.386       .  S
O1768      C1779   1.283       .  A
O1769     Zr1803   2.499       .  S
O1769      C1779   1.304       .  A
O1770     Zr1802   2.485       .  S
O1770      C1778   1.299       .  A
O1771     Zr1773   2.428       .  S
O1771      C1777   1.290       .  A
O1772     Zr1773   2.461       .  S
O1772      C1776   1.296       .  A
Zr1773     O1774   2.343       .  S
Zr1773     O1775   2.325       .  S
Zr1773     O1783   2.326       .  S
Zr1773     O1781   2.333       .  S
O1774     Zr1800   2.352       .  S
O1774     Zr1803   2.347       .  S
O1775     Zr1801   2.347       .  S
O1775     Zr1802   2.344       .  S
C1776      C2347   1.488       .  S
C1777      C2324   1.481       .  S
C1778      C2314   1.468       .  S
C1779      C2337   1.483       .  S
H1780      O1781   0.964       .  S
O1781     Zr1800   2.316       .  S
O1781     Zr1802   2.333       .  S
H1782      O1783   0.964       .  S
O1783     Zr1801   2.315       .  S
O1783     Zr1803   2.351       .  S
O1784     Zr1800   2.401       .  S
O1784      C1807   1.286       .  A
O1785     Zr1801   2.393       .  S
O1785      C1808   1.283       .  A
O1786     Zr1802   2.380       .  S
O1786      C1809   1.283       .  A
O1787     Zr1803   2.444       .  S
O1787      C1810   1.295       .  A
O1788     Zr1803   2.388       .  S
O1788      C1811   1.284       .  A
O1789     Zr1802   2.404       .  S
O1789      C1812   1.288       .  A
O1790     Zr1804   2.383       .  S
O1790      C1813   1.279       .  A
O1791     Zr1804   2.409       .  S
O1791      C1814   1.287       .  A
O1792     Zr1802   2.484       .  S
O1792      C1813   1.298       .  A
O1793     Zr1803   2.512       .  S
O1793      C1814   1.304       .  A
O1794     Zr1800   2.546       .  S
O1794      C1809   1.312       .  A
O1795     Zr1801   2.443       .  S
O1795      C1812   1.294       .  A
O1796     Zr1801   2.498       .  S
O1796      C1811   1.302       .  A
O1797     Zr1800   2.459       .  S
O1797      C1810   1.297       .  A
O1798     Zr1804   2.458       .  S
O1798      C1807   1.297       .  A
O1799     Zr1804   2.478       .  S
O1799      C1808   1.299       .  A
Zr1800     O1806   2.318       .  S
Zr1800     O1818   2.376       .  S
Zr1801     O1805   2.328       .  S
Zr1801     O1816   2.350       .  S
Zr1802     O1806   2.322       .  S
Zr1802     O1816   2.349       .  S
Zr1803     O1805   2.338       .  S
Zr1803     O1818   2.351       .  S
Zr1804     O1805   2.321       .  S
Zr1804     O1806   2.339       .  S
Zr1804     O1818   2.349       .  S
Zr1804     O1816   2.334       .  S
C1807      C2244   1.475       .  S
C1808      C2264   1.494       .  S
C1809      C2284   1.499       .  S
C1810      C2234   1.489       .  S
C1811      C2304   1.476       .  S
C1812      C2254   1.466       .  S
C1813      C2274   1.468       .  S
C1814      C2294   1.498       .  S
H1815      O1816   0.965       .  S
H1817      O1818   0.966       .  S
C1819      C2174   1.507       .  S
C1819      C1820   1.413   1_655  A
C1820      C2227   1.465   1_455  S
C1821      C2217   1.496       .  S
C1821      C1822   1.412       .  A
C1822      C2197   1.505       .  S
C1822      C1823   1.425       .  A
C1823      C2184   1.472       .  S
C1824      C2207   1.498       .  S
C1825      C1826   1.397       .  A
C1825      C1830   1.392       .  A
C1826      C1827   1.403       .  A
C1826      H1831   1.084       .  S
C1827      C2187   1.482       .  S
C1827      C1828   1.404       .  A
C1828      C1829   1.402       .  A
C1828      H1832   1.083       .  S
C1829      C2164   1.464       .  S
C1829      C1830   1.393       .  A
C1830      H1833   1.085       .  S
C1834      C2157   1.513       .  S
C1834      C1839   1.425       .  A
C1835      C1836   1.409       .  A
C1835      H1840   1.083       .  S
C1836      C2334   1.486       .  S
C1836      C1837   1.387       .  A
C1837      C1838   1.397       .  A
C1837      H1841   1.085       .  S
C1838      C2214   1.497       .  S
C1839      H1842   1.083       .  S
C1843      C2344   1.466       .  S
C1843      C1844   1.400       .  A
C1843      C1848   1.395       .  A
C1844      C1845   1.403       .  A
C1844      H1849   1.084       .  S
C1845      C2204   1.497       .  S
C1845      C1846   1.414       .  A
C1846      C1847   1.418       .  A
C1847      C1848   1.400       .  A
C1848      H1851   1.084       .  S
C1852      C2137   1.488       .  S
C1852      C1857   1.397       .  A
C1853      C1854   1.414       .  A
C1853      H1858   1.082       .  S
C1854      C2267   1.483       .  S
C1854      C1855   1.395       .  A
C1855      C1856   1.388       .  A
C1855      H1859   1.085       .  S
C1856      C2224   1.451       .  S
C1857      H1860   1.084       .  S
C1861      C2307   1.497       .  S
C1861      C1862   1.419       .  A
C1861      C1866   1.406       .  A
C1862      C1863   1.414       .  A
C1862      H1867   1.083       .  S
C1863      C2194   1.485       .  S
C1863      C1864   1.398       .  A
C1864      C1865   1.399       .  A
C1864      H1868   1.085       .  S
C1865      C2127   1.479       .  S
C1865      C1866   1.398       .  A
C1866      H1869   1.084       .  S
C1870      C2297   1.501       .  S
C1870      C1871   1.423       .  A
C1870      C1875   1.402       .  A
C1871      C1872   1.430       .  A
C1871      H1876   1.074       .  S
C1872      C2177   1.534       .  S
C1872      C1873   1.408       .  A
C1873      C1874   1.393       .  A
C1873      H1877   1.075       .  S
C1874      C2117   1.476       .  S
C1874      C1875   1.399       .  A
C1875      H1878   1.084       .  S
O1879     Zr1915   2.393       .  S
O1879      C1890   1.284       .  A
O1880     Zr1914   2.420       .  S
O1880      C1891   1.289       .  A
O1881     Zr1887   2.382       .  S
O1881      C1892   1.281       .  A
O1882     Zr1887   2.397       .  S
O1882      C1893   1.284       .  A
O1883     Zr1917   2.487       .  S
O1883      C1893   1.301       .  A
O1884     Zr1916   2.484       .  S
O1884      C1892   1.299       .  A
O1885     Zr1887   2.430       .  S
O1885      C1891   1.290       .  A
O1886     Zr1887   2.450       .  S
O1886      C1890   1.294       .  A
Zr1887     O1888   2.331       .  S
Zr1887     O1889   2.327       .  S
Zr1887     O1897   2.327       .  S
Zr1887     O1895   2.339       .  S
O1888     Zr1914   2.319       .  S
O1888     Zr1917   2.328       .  S
O1889     Zr1915   2.312       .  S
O1889     Zr1916   2.342       .  S
C1890      C2167   1.468       .  S
C1891      C2074   1.482       .  S
C1892      C2134   1.463       .  S
C1893      C2084   1.491       .  S
H1894      O1895   0.965       .  S
O1895     Zr1914   2.351       .  S
O1895     Zr1916   2.345       .  S
H1896      O1897   0.965       .  S
O1897     Zr1915   2.359       .  S
O1897     Zr1917   2.348       .  S
O1898     Zr1914   2.415       .  S
O1898      C1921   1.287       .  A
O1899     Zr1915   2.388       .  S
O1899      C1922   1.284       .  A
O1900     Zr1916   2.433       .  S
O1900      C1923   1.292       .  A
O1901     Zr1917   2.393       .  S
O1901      C1924   1.284       .  A
O1902     Zr1917   2.402       .  S
O1902      C1925   1.288       .  A
O1903     Zr1916   2.381       .  S
O1903      C1926   1.282       .  A
O1904     Zr1918   2.396       .  S
O1904      C1927   1.285       .  A
O1905     Zr1918   2.399       .  S
O1905      C1928   1.286       .  A
O1906     Zr1916   2.502       .  S
O1906      C1927   1.303       .  A
O1907     Zr1917   2.485       .  S
O1907      C1928   1.299       .  A
O1908     Zr1914   2.420       .  S
O1908      C1923   1.289       .  A
O1909     Zr1915   2.548       .  S
O1909      C1926   1.312       .  A
O1910     Zr1915   2.471       .  S
O1910      C1925   1.299       .  A
O1911     Zr1914   2.497       .  S
O1911      C1924   1.302       .  A
O1912     Zr1918   2.473       .  S
O1912      C1921   1.298       .  A
O1913     Zr1918   2.478       .  S
O1913      C1922   1.300       .  A
Zr1914     O1920   2.360       .  S
Zr1914     O1932   2.322       .  S
Zr1915     O1919   2.356       .  S
Zr1915     O1930   2.324       .  S
Zr1916     O1920   2.340       .  S
Zr1916     O1930   2.341       .  S
Zr1917     O1919   2.340       .  S
Zr1917     O1932   2.335       .  S
Zr1918     O1919   2.330       .  S
Zr1918     O1920   2.336       .  S
Zr1918     O1932   2.339       .  S
Zr1918     O1930   2.344       .  S
C1921      C2097   1.473       .  S
C1922      C2114   1.483       .  S
C1923      C2107   1.454       .  S
C1924      C2054   1.479       .  S
C1925      C2124   1.481       .  S
C1926      C2154   1.500       .  S
C1927      C2144   1.487       .  S
C1928      C2067   1.472       .  S
H1929      O1930   0.964       .  S
H1931      O1932   0.965       .  S
C1933      C2287   1.507   1_554  S
C1933      C1934   1.419       .  A
C1933      C1938   1.417       .  A
C1934      C1935   1.412       .  A
C1934      H1939   1.083       .  S
C1935      C1936   1.392       .  A
C1936      C1937   1.398       .  A
C1937      C2044   1.487       .  S
C1937      C1938   1.412       .  A
C1938      H1941   1.083   1_554  S
C1942      C2047   1.484       .  S
C1943      C1997   1.464       .  S
C1943      C1944   1.400       .  A
C1944      C2034   1.483       .  S
C1945      C2024   1.492       .  S
C1945      C1946   1.418   1_565  A
C1946      C2014   1.468       .  S
C1947      C2004   1.490       .  S
C1948      C2104   1.472   1_556  S
C1948      C1949   1.398       .  A
C1948      C1953   1.400       .  A
C1949      H1954   1.084       .  S
C1950      C2327   1.459       .  S
C1950      C1951   1.399       .  A
C1951      H1955   1.084       .  S
C1952      C2017   1.476   1_565  S
C1952      C1953   1.403       .  A
C1953      H1956   1.083   1_556  S
C1957      C2077   1.459       .  S
C1957      C1962   1.400       .  A
C1958      C1959   1.391       .  A
C1958      H1963   1.086       .  S
C1959      C2277   1.472       .  S
C1959      C1960   1.408       .  A
C1960      C1961   1.416       .  A
C1960      H1964   1.083       .  S
C1961      C2027   1.493       .  S
C1962      H1965   1.084       .  S
C1966      C2057   1.503       .  S
C1966      C1967   1.414       .  A
C1966      C1971   1.412       .  A
C1967      C1968   1.409       .  A
C1967      H1972   1.083       .  S
C1968      C2007   1.486       .  S
C1968      C1969   1.403       .  A
C1969      C1970   1.402       .  A
C1969      H1973   1.084       .  S
C1970      C2237   1.489       .  S
C1970      C1971   1.406       .  A
C1971      H1974   1.083       .  S
C1975      C1976   1.416       .  A
C1975      C1980   1.398       .  A
C1976      C1977   1.413       .  A
C1976      H1981   1.083       .  S
C1977      C2094   1.477       .  S
C1977      C1978   1.396       .  A
C1978      C1979   1.392       .  A
C1978      H1982   1.085       .  S
C1979      C1994   1.463       .  S
C1979      C1980   1.395       .  A
C1984      C2247   1.469   1_554  S
C1984      C1985   1.402       .  A
C1984      C1989   1.395       .  A
C1985      C1986   1.403       .  A
C1985      H1990   1.084       .  S
C1986      C2064   1.481       .  S
C1986      C1987   1.412       .  A
C1987      C1988   1.406       .  A
C1987      H1991   1.084       .  S
C1988      C2037   1.485       .  S
C1988      C1989   1.397       .  A
C1989      H1992   1.085   1_554  S
C1993      C1994   1.408       .  A
C1993      C1998   1.392   1_556  A
C1993      F2000   1.358   1_556  S
C1994      C1995   1.401       .  A
C1995      C1996   1.389       .  A
C1995      F2002   1.358       .  S
C1996      C1997   1.402       .  A
C1996      F2001   1.358       .  S
C1997      C1998   1.397   1_556  A
C1998      F1999   1.357       .  S
C2003      C2004   1.406   1_554  A
C2003      C2008   1.405   1_554  A
C2003      F2010   1.357       .  S
C2004      C2005   1.405       .  A
C2005      C2006   1.400       .  A
C2005      F2012   1.357       .  S
C2006      C2007   1.406       .  A
C2006      F2011   1.358       .  S
C2007      C2008   1.407       .  A
C2008      F2009   1.357   1_556  S
C2013      C2018   1.392       .  A
C2013      F2020   1.358       .  S
C2014      C2015   1.401       .  A
C2015      C2016   1.396       .  A
C2015      F2022   1.358       .  S
C2016      C2017   1.408       .  A
C2016      F2021   1.358       .  S
C2018      F2019   1.358       .  S
C2023      C2024   1.405       .  A
C2023      C2028   1.401       .  A
C2023      F2030   1.357       .  S
C2025      C2026   1.400   1_455  A
C2025      F2032   1.357       .  S
C2026      C2027   1.412   1_554  A
C2026      F2031   1.358       .  S
C2028      F2029   1.357       .  S
C2033      C2034   1.398       .  A
C2033      C2038   1.393       .  A
C2033      F2040   1.357       .  S
C2034      C2035   1.406   1_556  A
C2035      C2036   1.400       .  A
C2035      F2042   1.358       .  S
C2036      C2037   1.406       .  A
C2036      F2041   1.357       .  S
C2037      C2038   1.413   1_554  A
C2038      F2039   1.357       .  S
C2043      C2048   1.393       .  A
C2043      F2050   1.358       .  S
C2044      C2045   1.409   1_554  A
C2045      C2046   1.406       .  A
C2045      F2052   1.357       .  S
C2046      C2047   1.406       .  A
C2046      F2051   1.357       .  S
C2048      F2049   1.358       .  S
C2053      C2054   1.405   1_556  A
C2053      C2058   1.410       .  A
C2053      F2060   1.358   1_556  S
C2054      C2055   1.405       .  A
C2055      C2056   1.397   1_554  A
C2055      F2062   1.359       .  S
C2056      C2057   1.411       .  A
C2056      F2061   1.358       .  S
C2057      C2058   1.415       .  A
C2058      F2059   1.357       .  S
C2063      C2064   1.402       .  A
C2063      C2068   1.391       .  A
C2063      F2070   1.359       .  S
C2064      C2065   1.411       .  A
C2065      C2066   1.409       .  A
C2065      F2072   1.357       .  S
C2066      C2067   1.404       .  A
C2066      F2071   1.357       .  S
C2067      C2068   1.406       .  A
C2068      F2069   1.358       .  S
C2073      C2074   1.414       .  A
C2073      C2078   1.398       .  A
C2073      F2080   1.358       .  S
C2074      C2075   1.414       .  A
C2075      C2076   1.389       .  A
C2075      F2082   1.358       .  S
C2076      C2077   1.397       .  A
C2076      F2081   1.359   1_554  S
C2077      C2078   1.400       .  A
C2078      F2079   1.358       .  S
C2083      C2084   1.407       .  A
C2083      C2088   1.402       .  A
C2083      F2090   1.357       .  S
C2084      C2085   1.416       .  A
C2085      C2086   1.402       .  A
C2085      F2092   1.358       .  S
C2086      C2087   1.402       .  A
C2087      C2088   1.412       .  A
C2088      F2089   1.358       .  S
C2093      C2094   1.405   1_554  A
C2093      C2098   1.401       .  A
C2093      F2100   1.358       .  S
C2094      C2095   1.407       .  A
C2095      C2096   1.400       .  A
C2095      F2102   1.358       .  S
C2096      C2097   1.404   1_556  A
C2096      F2101   1.358       .  S
C2097      C2098   1.405       .  A
C2098      F2099   1.358       .  S
C2103      C2104   1.411       .  A
C2103      C2108   1.394       .  A
C2103      F2110   1.358       .  S
C2104      C2105   1.405       .  A
C2105      C2106   1.392       .  A
C2105      F2112   1.358       .  S
C2106      C2107   1.401       .  A
C2106      F2111   1.355       .  S
C2107      C2108   1.398       .  A
C2108      F2109   1.358       .  S
C2113      C2114   1.413       .  A
C2113      C2118   1.392       .  A
C2113      F2120   1.359       .  S
C2114      C2115   1.408       .  A
C2115      C2116   1.403       .  A
C2115      F2122   1.358       .  S
C2116      C2117   1.408       .  A
C2116      F2121   1.358       .  S
C2117      C2118   1.400       .  A
C2118      F2119   1.359       .  S
C2123      C2124   1.407       .  A
C2123      C2128   1.401       .  A
C2123      F2130   1.358       .  S
C2124      C2125   1.413       .  A
C2125      C2126   1.392       .  A
C2125      F2132   1.359       .  S
C2126      C2127   1.401       .  A
C2126      F2131   1.358       .  S
C2127      C2128   1.409       .  A
C2128      F2129   1.358       .  S
C2133      C2134   1.405       .  A
C2133      C2138   1.394       .  A
C2133      F2140   1.357       .  S
C2134      C2135   1.398       .  A
C2135      C2136   1.401       .  A
C2135      F2142   1.358       .  S
C2136      C2137   1.417       .  A
C2136      F2141   1.358       .  S
C2137      C2138   1.405       .  A
C2138      F2139   1.358       .  S
C2143      C2144   1.414       .  A
C2143      C2148   1.390       .  A
C2143      F2150   1.356       .  S
C2144      C2145   1.403       .  A
C2145      C2146   1.410       .  A
C2145      F2152   1.357       .  S
C2146      C2147   1.419       .  A
C2146      F2151   1.357   1_565  S
C2147      C2148   1.401       .  A
C2148      F2149   1.358       .  S
C2153      C2154   1.410       .  A
C2153      C2158   1.417       .  A
C2153      F2160   1.354       .  S
C2154      C2155   1.411       .  A
C2155      C2156   1.406       .  A
C2155      F2162   1.359       .  S
C2156      C2157   1.411       .  A
C2156      F2161   1.358       .  S
C2157      C2158   1.414       .  A
C2158      F2159   1.357       .  S
C2163      C2164   1.404       .  A
C2163      C2168   1.392       .  A
C2163      F2170   1.358       .  S
C2164      C2165   1.400       .  A
C2165      C2166   1.394       .  A
C2165      F2172   1.358       .  S
C2166      C2167   1.411       .  A
C2166      F2171   1.359       .  S
C2167      C2168   1.405       .  A
C2168      F2169   1.358       .  S
C2173      C2174   1.407       .  A
C2173      C2178   1.405       .  A
C2173      F2180   1.356       .  S
C2174      C2175   1.397       .  A
C2175      C2176   1.398       .  A
C2175      F2182   1.355       .  S
C2176      C2177   1.430       .  A
C2176      F2181   1.356       .  S
C2177      C2178   1.420       .  A
C2178      F2179   1.352       .  S
C2183      C2184   1.399       .  A
C2183      C2188   1.398       .  A
C2183      F2190   1.357       .  S
C2184      C2185   1.402       .  A
C2185      C2186   1.391       .  A
C2185      F2192   1.359       .  S
C2186      C2187   1.407       .  A
C2186      F2191   1.358       .  S
C2187      C2188   1.413       .  A
C2188      F2189   1.358       .  S
C2193      C2194   1.405       .  A
C2193      C2198   1.406       .  A
C2193      F2200   1.358       .  S
C2194      C2195   1.405       .  A
C2195      C2196   1.403       .  A
C2195      F2202   1.358       .  S
C2196      C2197   1.410       .  A
C2196      F2201   1.357       .  S
C2197      C2198   1.410       .  A
C2198      F2199   1.355       .  S
C2203      C2204   1.413       .  A
C2203      C2208   1.404       .  A
C2203      F2210   1.358       .  S
C2204      C2205   1.408       .  A
C2205      C2206   1.404       .  A
C2205      F2212   1.358       .  S
C2206      C2207   1.409       .  A
C2206      F2211   1.357       .  S
C2207      C2208   1.404       .  A
C2208      F2209   1.357       .  S
C2213      C2218   1.410       .  A
C2213      F2220   1.357       .  S
C2214      C2215   1.415       .  A
C2215      C2216   1.392       .  A
C2215      F2222   1.359       .  S
C2216      C2217   1.399       .  A
C2216      F2221   1.359       .  S
C2218      F2219   1.357       .  S
C2223      C2224   1.400       .  A
C2223      C2228   1.390       .  A
C2223      F2230   1.358       .  S
C2225      C2226   1.384       .  A
C2225      F2232   1.358       .  S
C2226      F2231   1.357       .  S
C2227      C2228   1.402       .  A
C2228      F2229   1.358       .  S
C2233      C2234   1.408       .  A
C2233      C2238   1.401       .  A
C2233      F2240   1.357       .  S
C2234      C2235   1.410       .  A
C2235      C2236   1.403       .  A
C2235      F2242   1.358       .  S
C2236      C2237   1.406       .  A
C2236      F2241   1.358       .  S
C2237      C2238   1.408       .  A
C2238      F2239   1.358       .  S
C2243      C2244   1.403       .  A
C2243      C2248   1.391       .  A
C2243      F2250   1.358       .  S
C2244      C2245   1.415       .  A
C2245      C2246   1.397       .  A
C2245      F2252   1.358       .  S
C2246      C2247   1.398       .  A
C2246      F2251   1.358   1_556  S
C2247      C2248   1.406       .  A
C2248      F2249   1.357       .  S
C2253      C2254   1.410       .  A
C2253      C2258   1.395       .  A
C2253      F2260   1.358       .  S
C2254      C2255   1.404       .  A
C2255      C2256   1.387       .  A
C2255      F2262   1.356       .  S
C2256      C2257   1.400       .  A
C2256      F2261   1.359       .  S
C2257      C2258   1.400       .  A
C2263      C2264   1.408       .  A
C2263      C2268   1.399       .  A
C2263      F2270   1.358       .  S
C2264      C2265   1.420       .  A
C2265      C2266   1.397       .  A
C2265      F2272   1.358       .  S
C2266      C2267   1.398       .  A
C2266      F2271   1.358       .  S
C2267      C2268   1.411       .  A
C2268      F2269   1.358       .  S
C2273      C2274   1.407       .  A
C2273      C2278   1.395       .  A
C2273      F2280   1.357       .  S
C2274      C2275   1.406       .  A
C2275      C2276   1.400       .  A
C2275      F2282   1.358       .  S
C2276      C2277   1.405       .  A
C2276      F2281   1.358       .  S
C2277      C2278   1.403       .  A
C2278      F2279   1.358       .  S
C2283      C2284   1.413       .  A
C2283      C2288   1.400       .  A
C2283      F2290   1.356       .  S
C2284      C2285   1.409       .  A
C2285      C2286   1.417       .  A
C2285      F2292   1.356       .  S
C2286      C2287   1.415       .  A
C2286      F2291   1.357   1_556  S
C2287      C2288   1.405       .  A
C2288      F2289   1.358       .  S
C2293      C2294   1.408       .  A
C2293      C2298   1.418       .  A
C2293      F2300   1.357       .  S
C2294      C2295   1.411       .  A
C2295      C2296   1.396       .  A
C2295      F2302   1.354       .  S
C2296      C2297   1.402       .  A
C2296      F2301   1.359       .  S
C2297      C2298   1.417       .  A
C2298      F2299   1.357       .  S
C2303      C2304   1.407       .  A
C2303      C2308   1.410       .  A
C2303      F2310   1.358       .  S
C2304      C2305   1.405       .  A
C2305      C2306   1.395       .  A
C2305      F2312   1.359       .  S
C2306      C2307   1.411       .  A
C2306      F2311   1.358       .  S
C2307      C2308   1.411       .  A
C2308      F2309   1.357       .  S
C2313      C2314   1.406       .  A
C2313      C2318   1.397       .  A
C2313      F2320   1.357       .  S
C2314      C2315   1.401       .  A
C2315      C2316   1.404       .  A
C2315      F2322   1.358       .  S
C2316      C2317   1.413       .  A
C2316      F2321   1.358       .  S
C2317      C2318   1.403       .  A
C2318      F2319   1.358       .  S
C2323      C2324   1.414       .  A
C2323      C2328   1.397       .  A
C2323      F2330   1.358       .  S
C2324      C2325   1.413       .  A
C2325      C2326   1.388       .  A
C2325      F2332   1.358       .  S
C2326      C2327   1.397       .  A
C2326      F2331   1.359       .  S
C2327      C2328   1.399       .  A
C2328      F2329   1.358       .  S
C2333      C2334   1.402       .  A
C2333      C2338   1.399       .  A
C2333      F2340   1.358       .  S
C2334      C2335   1.412       .  A
C2335      C2336   1.403       .  A
C2335      F2342   1.358       .  S
C2336      C2337   1.405       .  A
C2336      F2341   1.356       .  S
C2337      C2338   1.413       .  A
C2338      F2339   1.358       .  S
C2343      C2344   1.403       .  A
C2343      C2348   1.401       .  A
C2343      F2350   1.357       .  S
C2344      C2345   1.395       .  A
C2345      C2346   1.390       .  A
C2345      F2352   1.359       .  S
C2346      C2347   1.418       .  A
C2346      F2351   1.358       .  S
C2347      C2348   1.411       .  A
C2348      F2349   1.357       .  S
