geometry optimzed in LAMMPS
_audit_creation_date              2020-11-30 
_audit_creation_method            'lammps2cif' 
_symmetry_space_group_name_H-M    'P1' 
_symmetry_Int_Tables_number       1 
_symmetry_cell_setting            triclinic 
loop_ 
_symmetry_equiv_pos_as_xyz 
  x,y,z 
_cell_length_a                    25.878961792503805 
_cell_length_b                    25.906073355613643 
_cell_length_c                    25.895055897127058 
_cell_angle_alpha                 89.9318749967487 
_cell_angle_beta                  89.99255397554735 
_cell_angle_gamma                 90.25748078997229 
loop_ 
_atom_site_label 
_atom_site_type_symbol 
_atom_site_fract_x 
_atom_site_fract_y 
_atom_site_fract_z 
_atom_site_charge 
C1          C  0.11973798  0.70541331  0.95800185     0.02700
C2          C  0.12929836  0.67926872  0.00438243    -0.13450
C3          C  0.10229195  0.69434075  0.04940444     0.00200
C4          C  0.06292555  0.73033231  0.04515596    -0.11970
C5          C  0.06266227  0.76347526  0.00240742     0.02690
C6          C  0.08985999  0.74908563  0.95861528    -0.11390
H7          H  0.16122600  0.65242657  0.00682706     0.08290
H8          H  0.03927009  0.73801010  0.07861403     0.05820
H9          H  0.09137794  0.77322521  0.92478631     0.05670
C10         C  0.27894304  0.57439829  0.04799604     0.02700
C11         C  0.28154617  0.60126063  0.00085483    -0.13450
C12         C  0.28357161  0.57582141  0.95299677     0.00200
C13         C  0.28407138  0.52093602  0.95273693    -0.11970
C14         C  0.28236969  0.49073893  0.99919792     0.02690
C15         C  0.27975607  0.51934246  0.04668109    -0.11390
H16         H  0.28053616  0.64301828  0.00134105     0.08290
H17         H  0.28500019  0.50265592  0.91548527     0.05820
H18         H  0.27759255  0.49961457  0.08323728     0.05670
C19         C  0.84621245  0.19197022  0.05108252     0.02700
C20         C  0.83433671  0.21656439  0.00462793    -0.13450
C21         C  0.86349260  0.20507123  0.96052073     0.00200
C22         C  0.90897208  0.17771899  0.96698928    -0.11970
C23         C  0.92002397  0.15377674  0.01542814     0.02690
C24         C  0.88245706  0.15347388  0.05286770    -0.11390
H25         H  0.80056168  0.24108563  0.00203178     0.08290
H26         H  0.93336648  0.17198622  0.93369873     0.05820
H27         H  0.88794601  0.13132406  0.08802469     0.05670
C28         C  0.69482943  0.34724819  0.95616894     0.02700
C29         C  0.69152030  0.32072614  0.00353091    -0.13450
C30         C  0.68859092  0.34663890  0.05114314     0.00200
C31         C  0.68729581  0.40154605  0.05082062    -0.11970
C32         C  0.69028564  0.43112926  0.00410054     0.02690
C33         C  0.69450237  0.40215324  0.95706398    -0.11390
H34         H  0.69277716  0.27896875  0.00346492     0.08290
H35         H  0.68427319  0.42045076  0.08769330     0.05820
H36         H  0.69857779  0.42143459  0.92045138     0.05670
C37         C  0.73290866  0.91652581  0.14211620     0.02700
C38         C  0.77945083  0.92256474  0.11705330    -0.13450
C39         C  0.78681485  0.96463038  0.08501804     0.00200
C40         C  0.75295725  0.00631634  0.08752311    -0.11970
C41         C  0.71646133  0.00728276  0.12660844     0.02690
C42         C  0.70280756  0.96052121  0.15138087    -0.11390
H43         H  0.80843790  0.89249955  0.11944999     0.08290
H44         H  0.75965348  0.04076732  0.06465802     0.05820
H45         H  0.67370562  0.95994193  0.18148508     0.05670
C46         C  0.59268847  0.00568109  0.29641606     0.02700
C47         C  0.61845116  0.95778825  0.29765754    -0.13450
C48         C  0.59173834  0.91014667  0.29791964     0.00200
C49         C  0.53662491  0.91141487  0.29771194    -0.11970
C50         C  0.50785705  0.95890570  0.29689690     0.02690
C51         C  0.53780505  0.00550135  0.29624582    -0.11390
H52         H  0.66026794  0.95760474  0.29706572     0.08290
H53         H  0.51705366  0.87467512  0.29763410     0.05820
H54         H  0.51920696  0.04252877  0.29486816     0.05670
C55         C  0.26080232  0.01227307  0.87414597     0.02700
C56         C  0.27177225  0.96379116  0.85214585    -0.13450
C57         C  0.25780425  0.91833783  0.87909475     0.00200
C58         C  0.23113700  0.92293456  0.92539538    -0.11970
C59         C  0.20955095  0.97089751  0.93694727     0.02690
C60         C  0.23589034  0.01457231  0.92119549    -0.11390
H61         H  0.28664194  0.96152371  0.81307596     0.08290
H62         H  0.21756463  0.88840420  0.94469177     0.05820
H63         H  0.22597088  0.05186272  0.93687213     0.05670
C64         C  0.37647779  0.91697242  0.70924215     0.02700
C65         C  0.35081352  0.96421969  0.70504486    -0.13450
C66         C  0.37754655  0.01135474  0.70293903     0.00200
C67         C  0.43275068  0.01040110  0.70273425    -0.11970
C68         C  0.46142210  0.96310289  0.70632973     0.02690
C69         C  0.43134444  0.91686421  0.71015799    -0.11390
H70         H  0.30898785  0.96434260  0.70515986     0.08290
H71         H  0.45253908  0.04700178  0.70031182     0.05820
H72         H  0.44982996  0.88007034  0.71514186     0.05670
C73         C  0.85681834  0.72285256  0.05361377     0.02700
C74         C  0.88674865  0.76744374  0.05039075    -0.13450
C75         C  0.90395488  0.78631524  0.00229917     0.00200
C76         C  0.89574333  0.75551183  0.95873501    -0.11970
C77         C  0.86103719  0.71490066  0.96016561     0.02690
C78         C  0.84111238  0.69818098  0.00784941    -0.11390
H79         H  0.89272340  0.78919486  0.08551755     0.08290
H80         H  0.91101989  0.76601499  0.92154857     0.05820
H81         H  0.81076197  0.66920787  0.00893834     0.05670
C82         C  0.69226783  0.57565619  0.05199249     0.02700
C83         C  0.69204278  0.52059546  0.05141120    -0.13450
C84         C  0.69006028  0.49127134  0.00444898     0.00200
C85         C  0.68883251  0.52051773  0.95756070    -0.11970
C86         C  0.69031431  0.57532692  0.95686956     0.02690
C87         C  0.69124451  0.60179857  0.00436713    -0.11390
H88         H  0.69430738  0.50134553  0.08820225     0.08290
H89         H  0.68719806  0.50144338  0.92070971     0.05820
H90         H  0.69264571  0.64356888  0.00426950     0.05670
C91         C  0.13113133  0.25095257  0.94872551     0.02700
C92         C  0.08666997  0.28202783  0.94857626    -0.13450
C93         C  0.05851772  0.28273913  0.99410680     0.00200
C94         C  0.08971652  0.28912007  0.03812583    -0.11970
C95         C  0.12962872  0.25320946  0.04229251     0.02690
C96         C  0.15212837  0.23542894  0.99629563    -0.11390
H97         H  0.06724890  0.29157846  0.91279226     0.08290
H98         H  0.07335275  0.30512691  0.07305125     0.05820
H99         H  0.18396912  0.20846778  0.99741592     0.05670
C100        C  0.28358503  0.34743016  0.94824177     0.02700
C101        C  0.28050577  0.31982615  0.99513745    -0.13450
C102        C  0.27764336  0.34469458  0.04317123     0.00200
C103        C  0.27871773  0.39980323  0.04392161    -0.11970
C104        C  0.28219881  0.43043108  0.99781421     0.02690
C105        C  0.28457658  0.40227763  0.95017656    -0.11390
H106        H  0.27898032  0.27807142  0.99428772     0.08290
H107        H  0.27612490  0.41812253  0.08110915     0.05820
H108        H  0.28661082  0.42209066  0.91370321     0.05670
C109        C  0.73969231  0.91531410  0.87036395     0.02700
C110        C  0.78911956  0.92061282  0.88950479    -0.13450
C111        C  0.80459338  0.96564574  0.91441223     0.00200
C112        C  0.76914100  0.00651813  0.91676318    -0.11970
C113        C  0.72873578  0.00776368  0.88179056     0.02690
C114        C  0.71154760  0.96066024  0.86006699    -0.11390
H115        H  0.81570704  0.88893189  0.88416047     0.08290
H116        H  0.77709529  0.04118235  0.93854699     0.05820
H117        H  0.68075356  0.96026708  0.83171647     0.05670
C118        C  0.60694366  0.00730539  0.71349874     0.02700
C119        C  0.55196555  0.00777157  0.71180063    -0.13450
C120        C  0.52161794  0.96158333  0.70757973     0.00200
C121        C  0.54972259  0.91382902  0.70557878    -0.11970
C122        C  0.60457554  0.91171821  0.70845772     0.02690
C123        C  0.63199449  0.95901877  0.71173864    -0.11390
H124        H  0.53339662  0.04478445  0.71465834     0.08290
H125        H  0.52976889  0.87746647  0.70193629     0.05820
H126        H  0.67373411  0.95826191  0.71419108     0.05670
C127        C  0.22320620  0.00492196  0.12474371     0.02700
C128        C  0.18572030  0.00848246  0.08718755    -0.13450
C129        C  0.15327118  0.96645204  0.07572121     0.00200
C130        C  0.16791113  0.91756875  0.09384445    -0.11970
C131        C  0.21039264  0.91211763  0.12627695     0.02690
C132        C  0.23610382  0.95639734  0.14458983    -0.11390
H133        H  0.17929049  0.04627070  0.07131745     0.08290
H134        H  0.14549671  0.88373478  0.08456041     0.05820
H135        H  0.26331119  0.95346620  0.17629781     0.05670
C136        C  0.36251739  0.91395790  0.29279074     0.02700
C137        C  0.41746977  0.91375857  0.29471754    -0.13450
C138        C  0.44754584  0.96010887  0.29571879     0.00200
C139        C  0.41872085  0.00738405  0.29445807    -0.11970
C140        C  0.36359067  0.00833204  0.29253861     0.02690
C141        C  0.33673076  0.96128512  0.29242060    -0.11390
H142        H  0.43604762  0.87669424  0.29473058     0.08290
H143        H  0.43824065  0.04414162  0.29432086     0.05820
H144        H  0.29495027  0.96143026  0.29021469     0.05670
C145        C  0.94786921  0.11111650  0.77494198     0.02700
C146        C  0.99467606  0.10423901  0.74845153    -0.13450
C147        C  0.03853356  0.08857814  0.77677880     0.00200
C148        C  0.03091615  0.07151941  0.82783213    -0.11970
C149        C  0.98082094  0.07372502  0.85012655     0.02690
C150        C  0.94792826  0.10974092  0.82866935    -0.11390
H151        H  0.99811952  0.11601143  0.70842346     0.08290
H152        H  0.06280328  0.05476185  0.84904135     0.05820
H153        H  0.91245406  0.11884564  0.84891495     0.05670
C154        C  0.94109219  0.25429330  0.61598432     0.02700
C155        C  0.98925020  0.25441523  0.64076222    -0.13450
C156        C  0.03594672  0.25389742  0.61307840     0.00200
C157        C  0.03390421  0.25442544  0.55818020    -0.11970
C158        C  0.98613802  0.25541097  0.53006290     0.02690
C159        C  0.94000970  0.25521744  0.56083457    -0.11390
H160        H  0.99032886  0.25314322  0.68253578     0.08290
H161        H  0.07036683  0.25323540  0.53830530     0.05820
H162        H  0.90259903  0.25529127  0.54263883     0.05670
C163        C  0.94273910  0.83010770  0.74137903     0.02700
C164        C  0.94048999  0.88283498  0.74176157    -0.13450
C165        C  0.98482752  0.91180893  0.75065228     0.00200
C166        C  0.03332360  0.88902665  0.74664477    -0.11970
C167        C  0.03643788  0.83542607  0.74425072     0.02690
C168        C  0.99084596  0.80572014  0.74134672    -0.11390
H169        H  0.90288410  0.89974140  0.74736104     0.08290
H170        H  0.06766058  0.91189017  0.75440377     0.05820
H171        H  0.99263136  0.76393561  0.74149542     0.05670
C172        C  0.94304928  0.66778985  0.62164606     0.02700
C173        C  0.99086167  0.67028140  0.64702907    -0.13450
C174        C  0.03784323  0.67208937  0.61987428     0.00200
C175        C  0.03607073  0.67084668  0.56466622    -0.11970
C176        C  0.98830473  0.66703182  0.53630524     0.02690
C177        C  0.94233790  0.66533073  0.56677176    -0.11390
H178        H  0.99136201  0.67235992  0.68877724     0.08290
H179        H  0.07244618  0.67365537  0.54463325     0.05820
H180        H  0.90511851  0.66236186  0.54843825     0.05670
C181        C  0.02504750  0.82684732  0.26353527     0.02700
C182        C  0.97693140  0.80827699  0.27935342    -0.13450
C183        C  0.93195695  0.83626208  0.26663140     0.00200
C184        C  0.93634353  0.88412309  0.24185386    -0.11970
C185        C  0.98501573  0.90059633  0.22471580     0.02690
C186        C  0.02805094  0.87108552  0.23504254    -0.11390
H187        H  0.97409926  0.77031750  0.29685268     0.08290
H188        H  0.90193127  0.90476975  0.23014428     0.05820
H189        H  0.06406642  0.87889664  0.21514297     0.05670
C190        C  0.03143732  0.66240059  0.39081206     0.02700
C191        C  0.98319680  0.66389443  0.36543721    -0.13450
C192        C  0.93597137  0.66695359  0.39239614     0.00200
C193        C  0.93806901  0.66806193  0.44757408    -0.11970
C194        C  0.98599844  0.66558788  0.47598735     0.02690
C195        C  0.03208836  0.66252357  0.44567306    -0.11390
H196        H  0.98247854  0.66403264  0.32364860     0.08290
H197        H  0.90177903  0.67187978  0.46752456     0.05820
H198        H  0.06934187  0.66068907  0.46406924     0.05670
C199        C  0.02388293  0.09758321  0.23107459     0.02700
C200        C  0.02422690  0.08891674  0.17857071    -0.13450
C201        C  0.98481312  0.06064031  0.15584826     0.00200
C202        C  0.93637346  0.05935991  0.18112969    -0.11970
C203        C  0.93108031  0.08148872  0.23041600     0.02690
C204        C  0.97619752  0.09779844  0.25699004    -0.11390
H205        H  0.05929046  0.09655872  0.15675108     0.08290
H206        H  0.90277599  0.04337973  0.16182462     0.05820
H207        H  0.97319718  0.11631282  0.29436981     0.05670
C208        C  0.03118598  0.25549097  0.38475118     0.02700
C209        C  0.03121449  0.25673632  0.43961783    -0.13450
C210        C  0.98468536  0.25548661  0.46971094     0.00200
C211        C  0.93713294  0.25332812  0.44104217    -0.11970
C212        C  0.93566627  0.25253264  0.38591498     0.02690
C213        C  0.98311437  0.25393634  0.35908172    -0.11390
H214        H  0.06844327  0.25813869  0.45800543     0.08290
H215        H  0.90059536  0.25144546  0.46087499     0.05820
H216        H  0.98266181  0.25246654  0.31730974     0.05670
C217        C  0.25939412  0.50519873  0.37781554     0.02700
C218        C  0.30032854  0.50090627  0.41276870    -0.13450
C219        C  0.32275534  0.45176519  0.42293285     0.00200
C220        C  0.31085559  0.41222798  0.38894799    -0.11970
C221        C  0.26295584  0.41286665  0.36530395     0.02690
C222        C  0.23812529  0.45994278  0.35694295    -0.11390
H223        H  0.31351100  0.53526236  0.43262681     0.08290
H224        H  0.33347999  0.37715682  0.38911141     0.05820
H225        H  0.20566402  0.46196128  0.33053164     0.05670
C226        C  0.09709726  0.41216882  0.20560894     0.02700
C227        C  0.12367721  0.45917797  0.20683805    -0.13450
C228        C  0.09772102  0.50613731  0.20984243     0.00200
C229        C  0.04252522  0.50588045  0.21013501    -0.11970
C230        C  0.01269925  0.45917266  0.20766548     0.02690
C231        C  0.04198225  0.41243220  0.20544419    -0.11390
H232        H  0.16551409  0.45915621  0.20739801     0.08290
H233        H  0.02363069  0.54267547  0.21316311     0.05820
H234        H  0.02276537  0.37552306  0.20419956     0.05670
O235        O  0.10626103  0.68754160  0.14136974    -0.86920
O236        O  0.38601973  0.75049837  0.19445731    -0.87080
O237        O  0.23051415  0.82240561  0.12750739    -0.88750
O238        O  0.26729759  0.65512593  0.09327224    -0.87510
O239        O  0.27055626  0.58077995  0.14122322    -0.87100
O240        O  0.20581472  0.86584586  0.20125049    -0.88470
O241        O  0.33892258  0.74582472  0.11999155    -0.86950
O242        O  0.17698100  0.71269373  0.09337224    -0.86530
Zr243      Zr  0.24802455  0.73089167  0.14907605     2.84310
O244        O  0.30131480  0.68201987  0.20073207    -1.08510
O245        O  0.17735006  0.75781569  0.20128617    -1.09240
C246        C  0.13023397  0.69659439  0.09819168     1.06190
C247        C  0.38258032  0.75044215  0.14454603     1.06140
C248        C  0.21660483  0.86330059  0.15304262     1.09120
C249        C  0.27233565  0.60522366  0.09751440     1.06900
H250        H  0.29439420  0.81276104  0.20375073     0.32460
O251        O  0.27551674  0.78351653  0.21729713    -1.29460
H252        H  0.18870300  0.63769650  0.15477948     0.32130
O253        O  0.20129700  0.65981817  0.18196315    -1.31140
O254        O  0.34499603  0.74757481  0.36055107    -0.86910
O255        O  0.07580023  0.66754832  0.30912619    -0.88410
O256        O  0.28129178  0.86753458  0.28734901    -0.86990
O257        O  0.35043427  0.59612589  0.23440676    -0.87040
O258        O  0.17954677  0.55176857  0.21726778    -0.86750
O259        O  0.11421447  0.82190430  0.27313443    -0.86550
O260        O  0.19977935  0.76235867  0.41002539    -0.86920
O261        O  0.23538569  0.59486200  0.37740150    -0.86390
O262        O  0.19779404  0.83661053  0.36184396    -0.87450
O263        O  0.25770763  0.55203329  0.30278389    -0.86610
O264        O  0.35691458  0.82280659  0.28148780    -0.87010
O265        O  0.06819915  0.75041875  0.24681487    -0.86730
O266        O  0.10401100  0.59728154  0.21978636    -0.86380
O267        O  0.39196204  0.67111165  0.25887677    -0.86790
O268        O  0.28311548  0.70717041  0.40954669    -0.87080
O269        O  0.12486228  0.66832581  0.38266090    -0.88420
Zr270      Zr  0.32877672  0.73460294  0.26846541     2.83100
Zr271      Zr  0.13149914  0.68533245  0.23339479     2.83500
Zr272      Zr  0.20721960  0.80767478  0.27205374     2.84090
Zr273      Zr  0.25602815  0.60971563  0.23087128     2.83360
Zr274      Zr  0.21450805  0.68508362  0.35316943     2.84220
O275        O  0.18610355  0.63444460  0.28345271    -1.08990
O276        O  0.25990009  0.75654180  0.32080525    -1.08490
C277        C  0.32338850  0.73559693  0.40403442     1.06160
C278        C  0.08069653  0.66534318  0.35901894     1.08780
C279        C  0.33156962  0.86497681  0.28750590     1.06340
C280        C  0.39089047  0.62365433  0.24595445     1.06700
C281        C  0.12917818  0.55485338  0.21562395     1.06280
C282        C  0.07189818  0.79691637  0.26314397     1.05830
C283        C  0.19683475  0.81260799  0.40569975     1.06260
C284        C  0.24942361  0.55423423  0.35161556     1.05770
H285        H  0.13405381  0.74708225  0.32475105     0.32450
O286        O  0.16155407  0.73561237  0.30251517    -1.30090
H287        H  0.31014482  0.64100814  0.32199012     0.32470
O288        O  0.28598999  0.66037307  0.30124305    -1.31480
C289        C  0.36632000  0.22426642  0.44649869     0.02700
C290        C  0.40341034  0.26351811  0.44550022    -0.13450
C291        C  0.42034828  0.28740198  0.49162833     0.00200
C292        C  0.39771064  0.27098660  0.53845154    -0.11970
C293        C  0.36431934  0.22904610  0.54013921     0.02690
C294        C  0.34783138  0.20600322  0.49409235    -0.11390
H295        H  0.41629544  0.27746739  0.40835357     0.08290
H296        H  0.40634737  0.29060405  0.57440091     0.05820
H297        H  0.31692524  0.17759386  0.49502036     0.05670
C298        C  0.19003382  0.07544191  0.45121166     0.02700
C299        C  0.19125535  0.10175408  0.49852417    -0.13450
C300        C  0.19357364  0.07572885  0.54602217     0.00200
C301        C  0.19342244  0.02089782  0.54587234    -0.11970
C302        C  0.19115265  0.99116439  0.49923623     0.02690
C303        C  0.18954483  0.02028323  0.45200505    -0.11390
H304        H  0.19190438  0.14353367  0.49831434     0.08290
H305        H  0.19605392  0.00238529  0.58293960     0.05820
H306        H  0.18868035  0.00081399  0.41528091     0.05670
O307        O  0.26363993  0.10232588  0.86617193    -0.86920
O308        O  0.20307152  0.15686169  0.59026598    -0.87080
O309        O  0.12811773  0.08742212  0.74948880    -0.88750
O310        O  0.29622701  0.05631998  0.70995593    -0.87510
O311        O  0.37076414  0.10423954  0.70670387    -0.87100
O312        O  0.08591745  0.16209729  0.77260237    -0.88470
O313        O  0.20224987  0.08283972  0.63875946    -0.86950
O314        O  0.23916627  0.05254486  0.79678250    -0.86530
Zr315      Zr  0.21930689  0.11114675  0.72783269     2.84310
O316        O  0.26955751  0.16371270  0.67456143    -1.08510
O317        O  0.19039816  0.16239508  0.79788517    -1.09240
C318        C  0.25577926  0.05866054  0.84315714     1.06190
C319        C  0.19955656  0.10699064  0.59500965     1.06140
C320        C  0.08784144  0.11339695  0.76462882     1.09120
C321        C  0.34632492  0.06062359  0.70579733     1.06900
H322        H  0.13987328  0.16671182  0.67950351     0.32460
O323        O  0.16908391  0.18051988  0.69820403    -1.29460
H324        H  0.31262547  0.11646115  0.78711745     0.32130
O325        O  0.29016358  0.14330204  0.77470961    -1.31140
O326        O  0.20964073  0.32712077  0.63012882    -0.86910
O327        O  0.27954162  0.26765019  0.90141874    -0.88410
O328        O  0.08343277  0.24831912  0.69286373    -0.86990
O329        O  0.36147248  0.20698743  0.62925755    -0.87040
O330        O  0.39778538  0.17796975  0.79947107    -0.86750
O331        O  0.12754566  0.24207157  0.85851098    -0.86550
O332        O  0.18898573  0.37056316  0.77990324    -0.86920
O333        O  0.35832915  0.33033431  0.75802804    -0.86390
O334        O  0.11402007  0.32323754  0.77772406    -0.87450
O335        O  0.40398071  0.25758747  0.73552362    -0.86610
O336        O  0.12900697  0.24541597  0.61732247    -0.87010
O337        O  0.19372094  0.20471606  0.90382931    -0.86730
O338        O  0.35030656  0.18108379  0.87390068    -0.86380
O339        O  0.28814985  0.23155329  0.58513586    -0.86790
O340        O  0.25160389  0.37221887  0.69396098    -0.87080
O341        O  0.27891704  0.34243959  0.85431879    -0.88420
Zr342      Zr  0.21900700  0.23322308  0.64534912     2.83100
Zr343      Zr  0.26265681  0.19365683  0.84400447     2.83500
Zr344      Zr  0.14264315  0.23372230  0.76644061     2.84090
Zr345      Zr  0.34145598  0.19285143  0.72173259     2.83360
Zr346      Zr  0.26517237  0.31395992  0.76367376     2.84220
O347        O  0.31442302  0.24397636  0.79129793    -1.08990
O348        O  0.19472916  0.28388219  0.71504690    -1.08490
C349        C  0.22366707  0.36953186  0.65305758     1.06160
C350        C  0.28143243  0.31760215  0.89788700     1.08780
C351        C  0.08614318  0.24950237  0.64274973     1.06340
C352        C  0.33625517  0.22046434  0.58798286     1.06700
C353        C  0.39353565  0.17672720  0.84979860     1.06280
C354        C  0.15172735  0.23065462  0.90062985     1.05830
C355        C  0.13870689  0.36660189  0.78173128     1.06260
C356        C  0.40033772  0.30495124  0.74833039     1.05770
H357        H  0.20307736  0.28607954  0.84057861     0.32450
O358        O  0.21377870  0.26290434  0.81368431    -1.30090
H359        H  0.31312172  0.28606516  0.66991766     0.32470
O360        O  0.29222690  0.26420211  0.69189557    -1.31480
C361        C  0.34567376  0.75587145  0.45172310     0.02700
C362        C  0.32565154  0.73949866  0.49963607    -0.13450
C363        C  0.35018384  0.75446067  0.54556688     0.00200
C364        C  0.39232783  0.78818627  0.54152368    -0.11970
C365        C  0.42115663  0.78426681  0.49546033     0.02690
C366        C  0.39103482  0.78583486  0.45095980    -0.11390
H367        H  0.29241127  0.71401233  0.50108526     0.08290
H368        H  0.41090047  0.80140977  0.57658994     0.05820
H369        H  0.40913595  0.79598384  0.41464105     0.05670
C370        C  0.19420944  0.84802778  0.55007618     0.02700
C371        C  0.19418389  0.82038892  0.50310265    -0.13450
C372        C  0.19349213  0.84512132  0.45475066     0.00200
C373        C  0.19227198  0.90029841  0.45395809    -0.11970
C374        C  0.19169595  0.93086444  0.50026985     0.02690
C375        C  0.19254278  0.90271583  0.54800816    -0.11390
H376        H  0.19597997  0.77866608  0.50407515     0.08290
H377        H  0.19243142  0.91875126  0.41666473     0.05820
H378        H  0.19240478  0.92236772  0.58454518     0.05670
C379        C  0.21237496  0.51342173  0.63239942     0.02700
C380        C  0.19026325  0.51364818  0.58306603    -0.13450
C381        C  0.19423351  0.46812883  0.55566814     0.00200
C382        C  0.18083964  0.42420432  0.58520844    -0.11970
C383        C  0.20694842  0.41973142  0.63220116     0.02690
C384        C  0.22186818  0.46576963  0.65678559    -0.11390
H385        H  0.18378488  0.54935596  0.56241517     0.08290
H386        H  0.16660924  0.38962260  0.56653817     0.05820
H387        H  0.24140878  0.46455247  0.69373632     0.05670
C388        C  0.10741678  0.41574056  0.78788963     0.02700
C389        C  0.13363074  0.46328013  0.78971275    -0.13450
C390        C  0.10744737  0.51056564  0.79286119     0.00200
C391        C  0.05231508  0.50972749  0.79540467    -0.11970
C392        C  0.02278346  0.46266647  0.79396458     0.02690
C393        C  0.05228178  0.41596668  0.78988692    -0.11390
H394        H  0.17539314  0.46353787  0.78736189     0.08290
H395        H  0.03313215  0.54642346  0.79818538     0.05820
H396        H  0.03311948  0.37907859  0.78756441     0.05670
O397        O  0.12565025  0.69144844  0.86926369    -0.86920
O398        O  0.39809613  0.75304613  0.80613900    -0.87080
O399        O  0.27859661  0.65758198  0.90866613    -0.88750
O400        O  0.26188802  0.82647482  0.87576646    -0.87510
O401        O  0.23527774  0.87348226  0.80518883    -0.87100
O402        O  0.27929535  0.58402025  0.85984950    -0.88470
O403        O  0.35123500  0.74939340  0.88100778    -0.86950
O404        O  0.19699488  0.71773722  0.91546404    -0.86530
Zr405      Zr  0.26309331  0.73401842  0.85330822     2.84310
O406        O  0.28943930  0.78510879  0.78371318    -1.08510
O407        O  0.21397721  0.66476881  0.82299304    -1.09240
C408        C  0.15041908  0.70119343  0.91163747     1.06190
C409        C  0.39411248  0.75423087  0.85618285     1.06140
C410        C  0.28098344  0.60768034  0.90386404     1.09120
C411        C  0.25246483  0.86932693  0.85153523     1.06900
H412        H  0.34385290  0.67013554  0.81940392     0.32460
O413        O  0.31490149  0.68362496  0.80023998    -1.29460
H414        H  0.16940614  0.78628780  0.82951274     0.32130
O415        O  0.19057826  0.76548443  0.80699001    -1.31140
O416        O  0.35823756  0.74451366  0.63721252    -0.86910
O417        O  0.08462227  0.67870376  0.70076257    -0.88410
O418        O  0.35731065  0.59289697  0.75264500    -0.86990
O419        O  0.29495744  0.87225493  0.71764928    -0.87040
O420        O  0.12761711  0.83530841  0.73968918    -0.86750
O421        O  0.18896713  0.55672133  0.78665250    -0.86550
O422        O  0.21866684  0.60408011  0.63278974    -0.86920
O423        O  0.20162119  0.76860212  0.59672303    -0.86390
O424        O  0.25062681  0.55680702  0.70065026    -0.87450
O425        O  0.20371346  0.84316558  0.64400968    -0.86610
O426        O  0.40188811  0.66687825  0.73032054    -0.87010
O427        O  0.11404028  0.60360355  0.78839953    -0.86730
O428        O  0.08371112  0.76376666  0.76926108    -0.86380
O429        O  0.36967465  0.82526226  0.71951465    -0.86790
O430        O  0.29009868  0.70757648  0.59384086    -0.87080
O431        O  0.13079481  0.68256013  0.62551611    -0.88420
Zr432      Zr  0.34172138  0.73606667  0.73083146     2.83100
Zr433      Zr  0.14254896  0.69353179  0.77631466     2.83500
Zr434      Zr  0.26541540  0.61397281  0.77065581     2.84090
Zr435      Zr  0.21942310  0.81556523  0.73516606     2.83360
Zr436      Zr  0.22068900  0.69544640  0.65373757     2.84220
O437        O  0.16983417  0.74534372  0.70720731    -1.08990
O438        O  0.29355338  0.66467816  0.69956071    -1.08490
C439        C  0.33250093  0.73357254  0.59553029     1.06160
C440        C  0.08773335  0.67782486  0.65049678     1.08780
C441        C  0.39860738  0.61821808  0.73869829     1.06340
C442        C  0.34505469  0.86829755  0.71556010     1.06700
C443        C  0.08603973  0.81009938  0.75166265     1.06280
C444        C  0.13872631  0.56025107  0.78987490     1.05830
C445        C  0.22891969  0.56132338  0.65639132     1.06260
C446        C  0.19947668  0.81840961  0.60044724     1.05770
H447        H  0.17192678  0.61788523  0.71131732     0.32450
O448        O  0.19426987  0.64504899  0.72353013    -1.30090
H449        H  0.28096349  0.78779870  0.65679023     0.32470
O450        O  0.27017581  0.76488959  0.68404375    -1.31480
C451        C  0.71755893  0.41015755  0.37933655     0.02700
C452        C  0.73626714  0.45770085  0.36153437    -0.13450
C453        C  0.71959966  0.50348918  0.38452923     0.00200
C454        C  0.68720300  0.50068555  0.42742869    -0.11970
C455        C  0.66477865  0.45284563  0.44316376     0.02690
C456        C  0.67937554  0.40840265  0.41659251    -0.11390
H457        H  0.76105532  0.45917875  0.32776894     0.08290
H458        H  0.67735573  0.53653235  0.44635308     0.05820
H459        H  0.66163965  0.37158076  0.42520707     0.05670
C460        C  0.86804352  0.50672369  0.21121109     0.02700
C461        C  0.92306626  0.50615874  0.20944332    -0.13450
C462        C  0.95228136  0.45911995  0.20860759     0.00200
C463        C  0.92265988  0.41203482  0.20962485    -0.11970
C464        C  0.86759313  0.41138847  0.21096556     0.02690
C465        C  0.84166084  0.45904473  0.21129315    -0.11390
H466        H  0.94231040  0.54307895  0.20918811     0.08290
H467        H  0.94161826  0.37514267  0.21019893     0.05820
H468        H  0.79987686  0.45900752  0.21300842     0.05670
C469        C  0.52861421  0.57880838  0.25265302     0.02700
C470        C  0.48284520  0.59750323  0.23007840    -0.13450
C471        C  0.43769985  0.59802466  0.25994867     0.00200
C472        C  0.44096095  0.58983418  0.31264340    -0.11970
C473        C  0.48359064  0.56591477  0.33400665     0.02690
C474        C  0.52609721  0.55642391  0.30115437    -0.11390
H475        H  0.48382488  0.61694135  0.19301185     0.08290
H476        H  0.40782006  0.59847630  0.33679615     0.05820
H477        H  0.56050383  0.53716631  0.31464992     0.05670
C478        C  0.52880026  0.75322416  0.11880731     0.02700
C479        C  0.48014520  0.75367323  0.14302439    -0.13450
C480        C  0.43340876  0.75403368  0.11489863     0.00200
C481        C  0.43640120  0.75440110  0.06006317    -0.11970
C482        C  0.48484006  0.75528276  0.03267360     0.02690
C483        C  0.53051921  0.75474965  0.06384443    -0.11390
H484        H  0.47873879  0.75226628  0.18477437     0.08290
H485        H  0.40016739  0.75314741  0.03975738     0.05820
H486        H  0.56810039  0.75495764  0.04596636     0.05670
O487        O  0.71675054  0.82658004  0.14272791    -0.86920
O488        O  0.76643326  0.76210145  0.41457074    -0.87080
O489        O  0.67283321  0.86401868  0.29378822    -0.88750
O490        O  0.84038130  0.83226008  0.27557125    -0.87510
O491        O  0.88694728  0.76175397  0.24870641    -0.87100
O492        O  0.59849494  0.81607062  0.29232470    -0.88470
O493        O  0.76449183  0.83685293  0.36766667    -0.86950
O494        O  0.73911349  0.87072716  0.21659594    -0.86530
Zr495      Zr  0.74880183  0.80725179  0.28038582     2.84310
O496        O  0.80092341  0.73821173  0.30591266    -1.08510
O497        O  0.68020717  0.77906877  0.22852593    -1.09240
C498        C  0.72672230  0.86822959  0.16910491     1.06190
C499        C  0.76892118  0.81233099  0.41061751     1.06140
C500        C  0.62271867  0.86002577  0.29503300     1.09120
C501        C  0.88289457  0.80856931  0.26431782     1.06900
H502        H  0.68329466  0.77315826  0.35973970     0.32460
O503        O  0.69703221  0.75410179  0.33084154    -1.29460
H504        H  0.80213776  0.78390979  0.18761820     0.32130
O505        O  0.78087743  0.76103819  0.20818170    -1.31140
O506        O  0.73919190  0.59389183  0.38138899    -0.86910
O507        O  0.69751346  0.65686086  0.09865274    -0.88410
O508        O  0.60285951  0.70498774  0.36916804    -0.86990
O509        O  0.88924289  0.67488694  0.31132112    -0.87040
O510        O  0.85305748  0.70225281  0.14331719    -0.86750
O511        O  0.57210857  0.74364509  0.20152238    -0.86550
O512        O  0.61908695  0.58296334  0.23781118    -0.86920
O513        O  0.78679278  0.55161698  0.21904906    -0.86390
O514        O  0.57197960  0.65480638  0.26040726    -0.87450
O515        O  0.86091830  0.60011209  0.21961364    -0.86610
O516        O  0.67757749  0.68370315  0.41240260    -0.87010
O517        O  0.62137845  0.74617849  0.12803454    -0.86730
O518        O  0.78047823  0.72738909  0.09837508    -0.86380
O519        O  0.84183005  0.67320834  0.38598351    -0.86790
O520        O  0.71414393  0.54997020  0.30820213    -0.87080
O521        O  0.69966504  0.58146502  0.14484585    -0.88420
Zr522      Zr  0.75089436  0.68553143  0.35766445     2.83100
Zr523      Zr  0.71041568  0.73200652  0.15768789     2.83500
Zr524      Zr  0.62793758  0.72592125  0.27830098     2.84090
Zr525      Zr  0.83127137  0.68953522  0.23567323     2.83360
Zr526      Zr  0.71101404  0.60771787  0.23533456     2.84220
O527        O  0.76154506  0.66215127  0.18499131    -1.08990
O528        O  0.68104574  0.65687238  0.30580034    -1.08490
C529        C  0.72550068  0.55253661  0.35654360     1.06160
C530        C  0.69639502  0.60659479  0.10174099     1.08780
C531        C  0.62874945  0.69130120  0.41011733     1.06340
C532        C  0.88563862  0.67168549  0.36148831     1.06700
C533        C  0.82834390  0.71533451  0.10159892     1.06280
C534        C  0.57726558  0.74794579  0.15154988     1.05830
C535        C  0.57639033  0.60739376  0.24684711     1.06260
C536        C  0.83682943  0.55617400  0.21630873     1.05770
H537        H  0.63329417  0.66503190  0.18600848     0.32450
O538        O  0.66044149  0.67776849  0.20815353    -1.30090
H539        H  0.80037835  0.60835545  0.30023181     0.32470
O540        O  0.78007972  0.63668731  0.28719243    -1.31480
C541        C  0.61849592  0.67647181  0.55234919     0.02700
C542        C  0.58168095  0.63767596  0.55570067    -0.13450
C543        C  0.54477783  0.63504719  0.51698465     0.00200
C544        C  0.55971127  0.65208491  0.46671943    -0.11970
C545        C  0.60384996  0.68268746  0.46044203     0.02690
C546        C  0.63102355  0.69796697  0.50468327    -0.11390
H547        H  0.57386268  0.62011653  0.59279176     0.08290
H548        H  0.53524628  0.64557745  0.43361529     0.05820
H549        H  0.66362303  0.72429660  0.50165558     0.05670
C550        C  0.77934799  0.84510192  0.55322438     0.02700
C551        C  0.77785578  0.81846449  0.50631325    -0.13450
C552        C  0.77552259  0.84414956  0.45898320     0.00200
C553        C  0.77659295  0.89927166  0.45869022    -0.11970
C554        C  0.77903648  0.92921827  0.50522339     0.02690
C555        C  0.78002305  0.90012384  0.55240135    -0.11270
H556        H  0.77670077  0.77668801  0.50666247     0.08290
H557        H  0.77490779  0.91800910  0.42161136     0.05820
H558        H  0.78056615  0.91934951  0.58921170     0.05670
C559        C  0.53728692  0.57681286  0.72127567     0.02700
C560        C  0.49153706  0.59167729  0.74699765    -0.13450
C561        C  0.44394442  0.58989010  0.72129408     0.00200
C562        C  0.44273679  0.57618283  0.66972529    -0.11970
C563        C  0.48588667  0.55538905  0.64446159     0.02690
C564        C  0.53377189  0.55609913  0.67092812    -0.11390
H565        H  0.49391357  0.61075743  0.78417357     0.08290
H566        H  0.40673041  0.58128466  0.64899758     0.05820
H567        H  0.56863807  0.54406004  0.65127778     0.05670
C568        C  0.44267914  0.75798118  0.88736549     0.02700
C569        C  0.44182553  0.75921447  0.94208042    -0.13450
C570        C  0.48760316  0.75578033  0.97250115     0.00200
C571        C  0.53523326  0.75175483  0.94408685    -0.11970
C572        C  0.53670754  0.75155557  0.88879180     0.02690
C573        C  0.49012059  0.75526839  0.86185582    -0.11390
H574        H  0.40453511  0.76226450  0.96008033     0.08290
H575        H  0.57149749  0.74784523  0.96411168     0.05820
H576        H  0.49062475  0.75429507  0.82006226     0.05670
C577        C  0.78440831  0.41275301  0.63649471     0.02700
C578        C  0.79667054  0.41605056  0.58409522    -0.13450
C579        C  0.77754697  0.46049755  0.56073820     0.00200
C580        C  0.79376516  0.50546352  0.58520491    -0.11970
C581        C  0.78651737  0.50635346  0.63888610     0.02690
C582        C  0.78210796  0.45894799  0.66504178    -0.11390
H583        H  0.79974520  0.38111217  0.56138636     0.08290
H584        H  0.79614453  0.54088193  0.56316591     0.05820
H585        H  0.77248389  0.45820209  0.70574068     0.05670
C586        C  0.87715408  0.50878618  0.79721588     0.02700
C587        C  0.93237942  0.50896297  0.79546664    -0.13450
C588        C  0.96224923  0.46228184  0.79600459     0.00200
C589        C  0.93294867  0.41508546  0.79743153    -0.11970
C590        C  0.87783533  0.41421213  0.79848931     0.02690
C591        C  0.85142613  0.46124001  0.79952425    -0.11390
H592        H  0.95126410  0.54599421  0.79270539     0.08290
H593        H  0.95215508  0.37831615  0.79712274     0.05820
H594        H  0.80961789  0.46081451  0.80044414     0.05670
O595        O  0.85824684  0.69664961  0.87057815    -0.86920
O596        O  0.58199738  0.74012321  0.80753987    -0.87080
O597        O  0.72312616  0.82477289  0.86997255    -0.88750
O598        O  0.69838653  0.65563346  0.91061731    -0.87510
O599        O  0.69837255  0.58059448  0.86380890    -0.87100
O600        O  0.74481901  0.86992335  0.79631930    -0.88470
O601        O  0.62887719  0.74406301  0.88245993    -0.86950
O602        O  0.78488432  0.72039620  0.91465661    -0.86530
Zr603      Zr  0.71680303  0.72983280  0.85313347     2.84310
O604        O  0.66609837  0.67660267  0.80071895    -1.08510
O605        O  0.78871562  0.76082071  0.80584025    -1.09240
C606        C  0.83267490  0.70768139  0.91220828     1.06190
C607        C  0.58574082  0.74505184  0.85768572     1.06140
C608        C  0.73209857  0.86695948  0.84370846     1.09120
C609        C  0.69517428  0.60567203  0.90705124     1.06900
H610        H  0.66700744  0.80491638  0.79421526     0.32460
O611        O  0.68849477  0.77714042  0.78208858    -1.29460
H612        H  0.77956242  0.63941095  0.85400486     0.32130
O613        O  0.76711454  0.65967999  0.82535554    -1.31140
O614        O  0.62147862  0.70701489  0.63785722    -0.86910
O615        O  0.89700579  0.67273201  0.70304614    -0.88410
O616        O  0.68439484  0.86474593  0.71528049    -0.86990
O617        O  0.62683172  0.57921578  0.74928236    -0.87040
O618        O  0.79460804  0.55231822  0.79060835    -0.86750
O619        O  0.85154143  0.82523835  0.73853587    -0.86550
O620        O  0.77514361  0.76394772  0.59872503    -0.86920
O621        O  0.77909481  0.59690754  0.64071002    -0.86390
O622        O  0.77257093  0.83846440  0.64546941    -0.87450
O623        O  0.74455017  0.54870414  0.70666634    -0.86610
O624        O  0.60975206  0.81700822  0.71362844    -0.87010
O625        O  0.89910123  0.75672818  0.76857431    -0.86730
O626        O  0.86868254  0.60101994  0.79046624    -0.86380
O627        O  0.58116049  0.65309702  0.73043815    -0.86790
O628        O  0.69515774  0.68155229  0.59489732    -0.87080
O629        O  0.85117625  0.67603360  0.62756473    -0.88420
Zr630      Zr  0.63794426  0.72594530  0.72982377     2.83100
Zr631      Zr  0.83847407  0.68923160  0.77792642     2.83500
Zr632      Zr  0.75830110  0.80727859  0.73286209     2.84090
Zr633      Zr  0.71652877  0.60627946  0.77366207     2.83360
Zr634      Zr  0.76220612  0.68774705  0.65546656     2.84220
O635        O  0.78659454  0.63883579  0.72664145    -1.08990
O636        O  0.70804627  0.75563360  0.68023504    -1.08490
C637        C  0.64682683  0.69040809  0.59790313     1.06160
C638        C  0.89392179  0.67163691  0.65278241     1.08780
C639        C  0.63445578  0.86099260  0.71185716     1.06340
C640        C  0.58520357  0.60399175  0.73572886     1.06700
C641        C  0.84482497  0.55726680  0.79300254     1.06280
C642        C  0.89462469  0.80217998  0.74998024     1.05830
C643        C  0.77613170  0.81403221  0.60237978     1.06260
C644        C  0.76971088  0.55385151  0.66404749     1.05770
H645        H  0.83880176  0.75197841  0.68568371     0.32450
O646        O  0.81099944  0.73951669  0.70715645    -1.30090
H647        H  0.67107183  0.63318752  0.67976886     0.32470
O648        O  0.69019056  0.65603855  0.70219855    -1.31480
C649        C  0.52824997  0.34196723  0.25289119     0.02700
C650        C  0.52492118  0.38905530  0.27918173    -0.13450
C651        C  0.47670892  0.40539787  0.29859838     0.00200
C652        C  0.43264867  0.37701888  0.28594839    -0.11970
C653        C  0.43494474  0.33573070  0.25248689     0.02690
C654        C  0.48290715  0.31681873  0.23704069    -0.11390
H655        H  0.56026722  0.40864356  0.29006962     0.08290
H656        H  0.39680933  0.38297837  0.30642539     0.05820
H657        H  0.48507708  0.28032490  0.21666307     0.05670
C658        C  0.52671170  0.16752079  0.11556466     0.02700
C659        C  0.47867484  0.16441838  0.13977454    -0.13450
C660        C  0.43230697  0.16378557  0.11170044     0.00200
C661        C  0.43466831  0.16402154  0.05674737    -0.11970
C662        C  0.48276586  0.16615756  0.02923878     0.02690
C663        C  0.52840455  0.16832066  0.06053658    -0.11390
H664        H  0.47746309  0.16441783  0.18155863     0.08290
H665        H  0.39842833  0.16319425  0.03634448     0.05820
H666        H  0.56592795  0.17163782  0.04291379     0.05670
O667        O  0.84361519  0.21379309  0.13840207    -0.86920
O668        O  0.57009589  0.17477421  0.19872207    -0.87080
O669        O  0.70667842  0.09807357  0.13128716    -0.88750
O670        O  0.69145418  0.26534557  0.09693638    -0.87510
O671        O  0.69506242  0.33969093  0.14415696    -0.87100
O672        O  0.73182913  0.05081852  0.20224001    -0.88470
O673        O  0.61791254  0.17706400  0.12457967    -0.86950
O674        O  0.77013774  0.19160324  0.09305079    -0.86530
Zr675      Zr  0.70533363  0.18998694  0.15464987     2.84310
O676        O  0.65530652  0.24196760  0.20625488    -1.08510
O677        O  0.77711640  0.15906358  0.20209481    -1.09240
C678        C  0.81808009  0.20111463  0.09709610     1.06190
C679        C  0.57458418  0.17306928  0.14849145     1.06140
C680        C  0.71619163  0.05526718  0.15538980     1.09120
C681        C  0.69100494  0.31541187  0.10068854     1.06900
H682        H  0.65660829  0.11201513  0.21119110     0.32460
O683        O  0.67858410  0.13925250  0.22398758    -1.29460
H684        H  0.77267819  0.27819359  0.15311676     0.32130
O685        O  0.75948421  0.25805346  0.18162566    -1.31140
O686        O  0.61069716  0.18150645  0.36814490    -0.86910
O687        O  0.88873201  0.24368093  0.30521160    -0.88410
O688        O  0.67405078  0.05126895  0.29042520    -0.86990
O689        O  0.61888782  0.33592879  0.24058780    -0.87040
O690        O  0.78593361  0.36614644  0.21885805    -0.86750
O691        O  0.84056022  0.08282409  0.25370020    -0.86550
O692        O  0.76786109  0.15502087  0.41058412    -0.86920
O693        O  0.73764540  0.32133312  0.37510028    -0.86390
O694        O  0.76513571  0.08054642  0.36310108    -0.87450
O695        O  0.71681542  0.36819443  0.30234848    -0.86610
O696        O  0.59961507  0.09898242  0.28778952    -0.87010
O697        O  0.88603518  0.15679375  0.23352207    -0.86730
O698        O  0.85967230  0.31784907  0.21651621    -0.86380
O699        O  0.57230982  0.26532542  0.26893215    -0.86790
O700        O  0.68287156  0.20939494  0.41171900    -0.87080
O701        O  0.84190134  0.24506656  0.38015643    -0.88420
Zr702      Zr  0.62730090  0.19010992  0.27532334     2.83100
Zr703      Zr  0.82907011  0.22853132  0.23116943     2.83500
Zr704      Zr  0.74949428  0.10792640  0.27248564     2.84090
Zr705      Zr  0.70920331  0.30981552  0.23330487     2.83360
Zr706      Zr  0.75115538  0.22993875  0.35298853     2.84220
O707        O  0.77885733  0.28047519  0.28333898    -1.08990
O708        O  0.69955920  0.16221590  0.32234889    -1.08490
C709        C  0.63758365  0.18894435  0.40972242     1.06160
C710        C  0.88544571  0.24724035  0.35530819     1.08780
C711        C  0.62396176  0.05533843  0.29189396     1.06340
C712        C  0.57654918  0.31270376  0.25372288     1.06700
C713        C  0.83591945  0.36180436  0.21524952     1.06280
C714        C  0.88241565  0.10803859  0.24124367     1.05830
C715        C  0.76959279  0.10493645  0.40670543     1.06260
C716        C  0.72630838  0.36351102  0.35047058     1.05770
H717        H  0.82971995  0.16353928  0.32016293     0.32450
O718        O  0.80101638  0.17717193  0.30072661    -1.30090
H719        H  0.65793798  0.28136422  0.32694889     0.32470
O720        O  0.67909713  0.26011916  0.30485976    -1.31480
C721        C  0.44681447  0.33429376  0.74110965     0.02700
C722        C  0.44443214  0.36770661  0.70020139    -0.13450
C723        C  0.48639633  0.39709600  0.68594452     0.00200
C724        C  0.53532746  0.38529128  0.70716763    -0.11970
C725        C  0.53989874  0.34340379  0.74147681     0.02690
C726        C  0.49481185  0.31975746  0.76080523    -0.11390
H727        H  0.40996048  0.36749670  0.67654380     0.08290
H728        H  0.56988943  0.40454585  0.69336832     0.05820
H729        H  0.49736360  0.28706551  0.78687358     0.05670
C730        C  0.44163330  0.17130037  0.88264038     0.02700
C731        C  0.43982152  0.16988503  0.93769995    -0.13450
C732        C  0.48541446  0.16738605  0.96904458     0.00200
C733        C  0.53360433  0.16699761  0.94167720    -0.11970
C734        C  0.53627123  0.16903763  0.88683703     0.02690
C735        C  0.48993332  0.17035622  0.85853610    -0.11390
H736        H  0.40223574  0.17152702  0.95540077     0.08290
H737        H  0.56977556  0.16546659  0.96212002     0.05820
H738        H  0.49136799  0.17230011  0.81679892     0.05670
C739        C  0.61953951  0.17959696  0.55353692     0.02700
C740        C  0.56736935  0.16570372  0.55439750    -0.13450
C741        C  0.54006098  0.17917486  0.51068056     0.00200
C742        C  0.56327158  0.16064444  0.46537208    -0.11970
C743        C  0.61572922  0.17398112  0.45999696     0.02690
C744        C  0.64445754  0.18319972  0.50546627    -0.11390
H745        H  0.54702625  0.15871026  0.59016232     0.08290
H746        H  0.53961728  0.15604023  0.43113806     0.05820
H747        H  0.68452519  0.19530260  0.50354403     0.05670
C748        C  0.77589580  0.07383370  0.45649367     0.02700
C749        C  0.77619322  0.01877913  0.45750485    -0.13450
C750        C  0.77944588  0.98960569  0.50467104     0.00200
C751        C  0.78223170  0.01921533  0.55147396    -0.11970
C752        C  0.78173939  0.07417297  0.55190921     0.02690
C753        C  0.77905571  0.10018902  0.50405361    -0.11390
H754        H  0.77320097  0.99943595  0.42085419     0.08290
H755        H  0.78417193  0.00033299  0.58845098     0.05820
H756        H  0.77809277  0.14194955  0.50388941     0.05670
O757        O  0.86546788  0.21914417  0.86817999    -0.86920
O758        O  0.58348814  0.17516319  0.80754699    -0.87080
O759        O  0.70391719  0.26646617  0.91098362    -0.88750
O760        O  0.71792955  0.09863867  0.87603971    -0.87510
O761        O  0.74562083  0.05170597  0.80589420    -0.87100
O762        O  0.70490616  0.34081203  0.86305297    -0.88470
O763        O  0.62959754  0.17741983  0.88276125    -0.86950
O764        O  0.79057646  0.19832096  0.91160126    -0.86530
Zr765      Zr  0.71959947  0.19128054  0.85435240     2.84310
O766        O  0.69421703  0.14098577  0.78470945    -1.08510
O767        O  0.77029167  0.26112361  0.82521768    -1.09240
C768        C  0.83893393  0.20886850  0.90972067     1.06190
C769        C  0.58656037  0.17343371  0.85751519     1.06140
C770        C  0.70132372  0.31640906  0.90672049     1.09120
C771        C  0.72801676  0.05581134  0.85217496     1.06900
H772        H  0.64084334  0.25741668  0.82207030     0.32460
O773        O  0.66949400  0.24388732  0.80251130    -1.29460
H774        H  0.81365286  0.13966764  0.83004664     0.32130
O775        O  0.79269356  0.16081222  0.80762958    -1.31140
O776        O  0.62127345  0.18640971  0.64351311    -0.86910
O777        O  0.89669628  0.25039532  0.69882888    -0.88410
O778        O  0.63062409  0.34021347  0.75789644    -0.86990
O779        O  0.68899496  0.05253321  0.72087131    -0.87040
O780        O  0.85914543  0.09913065  0.75301064    -0.86750
O781        O  0.79624789  0.36921105  0.79095344    -0.86550
O782        O  0.76832661  0.32251210  0.63264464    -0.86920
O783        O  0.77667509  0.15541357  0.59740459    -0.86390
O784        O  0.74127067  0.36978671  0.70264628    -0.87450
O785        O  0.77887373  0.08144295  0.64589153    -0.86610
O786        O  0.58562323  0.26655137  0.73589949    -0.87010
O787        O  0.87051242  0.32167487  0.79178552    -0.86730
O788        O  0.90113911  0.17569157  0.74183781    -0.86380
O789        O  0.61463369  0.10038671  0.72316086    -0.86790
O790        O  0.68951937  0.21792301  0.59616246    -0.87080
O791        O  0.84935248  0.24280942  0.62448423    -0.88420
Zr792      Zr  0.64151235  0.19174882  0.73418427     2.83100
Zr793      Zr  0.84102568  0.23305987  0.77641374     2.83500
Zr794      Zr  0.72010032  0.31321003  0.77286446     2.84090
Zr795      Zr  0.76467411  0.11025782  0.73637853     2.83360
Zr796      Zr  0.76075090  0.23082656  0.65424116     2.84220
O797        O  0.81228509  0.18115360  0.70751862    -1.08990
O798        O  0.68966661  0.26300248  0.70198435    -1.08490
C799        C  0.64499944  0.19603455  0.60078718     1.06160
C800        C  0.89253245  0.24950030  0.64849836     1.08780
C801        C  0.58887075  0.31531529  0.74578037     1.06340
C802        C  0.63882184  0.05668011  0.71929925     1.06700
C803        C  0.90048931  0.12808789  0.75134894     1.06280
C804        C  0.84631557  0.36507540  0.79423855     1.05830
C805        C  0.76279906  0.36516306  0.65810503     1.06260
C806        C  0.77978034  0.10546823  0.60176078     1.05770
H807        H  0.81269423  0.30723386  0.71300185     0.32450
O808        O  0.78901428  0.28087476  0.72441450    -1.30090
H809        H  0.70002094  0.13940362  0.65944877     0.32470
O810        O  0.71219200  0.16176997  0.68656652    -1.31480
O811        O  0.12183596  0.24595354  0.13407409    -0.86920
O812        O  0.38621411  0.17053552  0.19156858    -0.87080
O813        O  0.26745466  0.26241264  0.08832489    -0.88750
O814        O  0.24364726  0.09390369  0.12877278    -0.87510
O815        O  0.21704848  0.04968247  0.20135402    -0.87100
O816        O  0.26863120  0.33713624  0.13537379    -0.88470
O817        O  0.33927600  0.17103722  0.11679890    -0.86950
O818        O  0.17992168  0.19639887  0.09003215    -0.86530
Zr819      Zr  0.25080622  0.18678193  0.14694633     2.84310
O820        O  0.27720775  0.13782248  0.21794465    -1.08510
O821        O  0.20254381  0.25737493  0.17569439    -1.09240
C822        C  0.14415759  0.23031548  0.09203248     1.06190
C823        C  0.38248588  0.16778690  0.14161829     1.06140
C824        C  0.27114767  0.31262297  0.09206129     1.09120
C825        C  0.23115372  0.05229558  0.15391082     1.06900
H826        H  0.33154392  0.25170454  0.17598432     0.32460
O827        O  0.30328760  0.23909582  0.19686407    -1.29460
H828        H  0.15531338  0.13952236  0.17586836     0.32130
O829        O  0.17812592  0.16015612  0.19707774    -1.31140
O830        O  0.35874273  0.20348576  0.35722390    -0.86910
O831        O  0.07665565  0.24979483  0.30350694    -0.88410
O832        O  0.34610441  0.32990538  0.23477728    -0.86990
O833        O  0.28279265  0.05437654  0.28458978    -0.87040
O834        O  0.11150273  0.09664564  0.25948736    -0.86750
O835        O  0.17827467  0.36645987  0.20907130    -0.86550
O836        O  0.23548754  0.32566201  0.36502887    -0.86920
O837        O  0.19841705  0.15687433  0.40565800    -0.86390
O838        O  0.25309001  0.37080586  0.29005057    -0.87450
O839        O  0.19297260  0.08241594  0.35824653    -0.86610
O840        O  0.39215604  0.25773466  0.25822718    -0.87010
O841        O  0.10284980  0.32076672  0.21486710    -0.86730
O842        O  0.06894850  0.17129845  0.23688007    -0.86380
O843        O  0.35844780  0.10053001  0.28358513    -0.86790
O844        O  0.28738530  0.22594095  0.40518520    -0.87080
O845        O  0.12474962  0.24922131  0.37764502    -0.88420
Zr846      Zr  0.33149966  0.18915801  0.26725164     2.83100
Zr847      Zr  0.13337542  0.23384873  0.22814374     2.83500
Zr848      Zr  0.25420342  0.30943926  0.22447148     2.84090
Zr849      Zr  0.20684914  0.11126228  0.26908397     2.83360
Zr850      Zr  0.21449087  0.23337874  0.34879165     2.84220
O851        O  0.16106886  0.18320934  0.29762957    -1.08990
O852        O  0.28343315  0.26045596  0.29559336    -1.08490
C853        C  0.33568480  0.21591447  0.39985722     1.06160
C854        C  0.08087308  0.25192533  0.35347490     1.08780
C855        C  0.38813168  0.30561607  0.24666518     1.06340
C856        C  0.33305254  0.05768699  0.28708939     1.06700
C857        C  0.07041964  0.12348047  0.24800565     1.06280
C858        C  0.12796836  0.36328540  0.20920520     1.05830
C859        C  0.24763599  0.36687913  0.33869462     1.06260
C860        C  0.19329687  0.10683344  0.40177471     1.05770
H861        H  0.16692196  0.31313486  0.29264715     0.32450
O862        O  0.18607810  0.28414643  0.27937901    -1.30090
H863        H  0.27560427  0.14211672  0.34679203     0.32470
O864        O  0.26191398  0.16230945  0.31864253    -1.31480
C865        C  0.47635080  0.52565426  0.59503634    -0.06550
C866        C  0.42898707  0.49971461  0.59799745    -0.17680
C867        C  0.42917425  0.46044685  0.63544324     0.10650
C868        C  0.47834683  0.43551983  0.64506200    -0.06480
C869        C  0.52014156  0.44835431  0.61224907    -0.17710
C870        C  0.51391625  0.49033595  0.57909165     0.10680
S871        S  0.37406684  0.45861475  0.67901852    -0.32680
S872        S  0.51262995  0.47135958  0.51285897    -0.32680
H873        H  0.48538874  0.51538729  0.49651320     0.28690
H874        H  0.33927130  0.48545853  0.64716927     0.28680
H875        H  0.39406262  0.52124371  0.59103115     0.19270
H876        H  0.55248979  0.42243243  0.60729853     0.19280
C877        C  0.47268229  0.44502640  0.33956625    -0.06550
C878        C  0.51646602  0.45777054  0.37063890    -0.17680
C879        C  0.51686229  0.50569720  0.39583748     0.10650
C880        C  0.47633590  0.53832164  0.38430967    -0.06480
C881        C  0.42880944  0.51265308  0.38541887    -0.17710
C882        C  0.42600628  0.47312246  0.34883011     0.10680
S883        S  0.57558121  0.53348206  0.41811560    -0.32680
S884        S  0.37392544  0.47932337  0.30242437    -0.32680
H885        H  0.40648851  0.47659013  0.25899125     0.28690
H886        H  0.57166596  0.58050417  0.39172934     0.28680
H887        H  0.55143317  0.43508964  0.37049303     0.19270
H888        H  0.39485360  0.53551420  0.39251239     0.19280
C889        C  0.72059175  0.45664611  0.54902976    -0.06550
C890        C  0.69735671  0.40678908  0.54294714    -0.17680
C891        C  0.64865011  0.40334134  0.52039097     0.10650
C892        C  0.63396629  0.44702313  0.49235983    -0.06480
C893        C  0.63702755  0.49063737  0.52362926    -0.17710
C894        C  0.68501530  0.49932259  0.54678215     0.10680
S895        S  0.61611404  0.34251102  0.51327941    -0.32680
S896        S  0.69695177  0.56499149  0.56444260    -0.32680
H897        H  0.65232989  0.56723346  0.59534091     0.28690
H898        H  0.64570453  0.31605327  0.55033733     0.28680
H899        H  0.71638995  0.37120423  0.55281681     0.19270
H900        H  0.61143760  0.52289593  0.51739811     0.19280
C901        C  0.45750208  0.73950237  0.49861392    -0.06550
C902        C  0.48332310  0.73514729  0.54606556    -0.17680
C903        C  0.48818040  0.68690568  0.56847643     0.10650
C904        C  0.49092121  0.64413118  0.53481023    -0.06480
C905        C  0.45572406  0.64478224  0.49425119    -0.17710
C906        C  0.44712381  0.69263010  0.47062912     0.10680
S907        S  0.50141352  0.68258467  0.63656934    -0.32680
S908        S  0.43999707  0.69021507  0.40147914    -0.32680
H909        H  0.47134254  0.73388344  0.39286643     0.28690
H910        H  0.48557894  0.73290711  0.64920531     0.28680
H911        H  0.49062051  0.76919924  0.56920290     0.19270
H912        H  0.45206125  0.61024988  0.47089773     0.19280
C913        C  0.46827135  0.32077777  0.49273140    -0.06550
C914        C  0.49326351  0.31763227  0.54050494    -0.17680
C915        C  0.51514155  0.26894448  0.55157793     0.10650
C916        C  0.52599835  0.23557825  0.50810209    -0.06480
C917        C  0.52670194  0.26047457  0.45906448    -0.17710
C918        C  0.50265616  0.30777285  0.45359498     0.10680
S919        S  0.52029418  0.25144844  0.61877699    -0.32680
S920        S  0.50008320  0.33707017  0.39211246    -0.32680
H921        H  0.54664038  0.31592840  0.37380842     0.28690
H922        H  0.52055881  0.30209896  0.63779687     0.28680
H923        H  0.48092984  0.34281022  0.57142635     0.19270
H924        H  0.54233758  0.24326386  0.42459936     0.19280
C925        C  0.24455125  0.46097760  0.52768829    -0.06550
C926        C  0.25230595  0.41127660  0.50792002    -0.17680
C927        C  0.30086974  0.39572849  0.49354144     0.10650
C928        C  0.33457859  0.43524821  0.47689554    -0.06480
C929        C  0.33690761  0.47671831  0.51076706    -0.17710
C930        C  0.28964552  0.49436202  0.53079222     0.10680
S931        S  0.30682124  0.32973133  0.47524637    -0.32680
S932        S  0.28991036  0.56218171  0.54585021    -0.32680
H933        H  0.25172645  0.57326850  0.50884017     0.28690
H934        H  0.26991619  0.31033461  0.51028778     0.28680
H935        H  0.22104880  0.38367084  0.50484482     0.19270
H936        H  0.36829841  0.50411335  0.50579932     0.19280
C937        C  0.99184620  0.94089234  0.18621145    -0.06550
C938        C  0.95622844  0.94485882  0.14494427    -0.17680
C939        C  0.96533169  0.98269866  0.10734711     0.10650
C940        C  0.00200043  0.01992012  0.11906522    -0.06480
C941        C  0.04753715  0.99714394  0.13761543    -0.17710
C942        C  0.04010382  0.96746821  0.18155628     0.10680
S943        S  0.95629304  0.96802987  0.04149398    -0.32680
S944        S  0.08712682  0.97519450  0.23291951    -0.32680
H945        H  0.05104413  0.96883837  0.27311483     0.28690
H946        H  0.96594343  0.01908862  0.02516811     0.28680
H947        H  0.92513666  0.91727125  0.14018163     0.19270
H948        H  0.08364579  0.01804045  0.13537975     0.19280
C949        C  0.95428908  0.02383586  0.86159135    -0.06550
C950        C  0.91594084  0.01053125  0.82519911    -0.17680
C951        C  0.93350134  0.98576288  0.78129005     0.10650
C952        C  0.97742981  0.95407689  0.78635228    -0.06480
C953        C  0.00203444  0.95064859  0.83502540    -0.17710
C954        C  0.98702472  0.98401843  0.87424172     0.10680
S955        S  0.90062605  0.99682061  0.72049449    -0.32680
S956        S  0.01928873  0.98648127  0.93380139    -0.32680
H957        H  0.02152017  0.93260436  0.93687705     0.28690
H958        H  0.94322990  0.98414331  0.68930242     0.28680
H959        H  0.88167901  0.03371341  0.82110984     0.19270
H960        H  0.03150375  0.92212896  0.84278388     0.19280
C961        C  0.15455960  0.97549520  0.95112338    -0.06550
C962        C  0.13493458  0.02269152  0.96980524    -0.17680
C963        C  0.10582291  0.02095641  0.01510936     0.10650
C964        C  0.10722091  0.97326780  0.04146305    -0.06480
C965        C  0.09895359  0.93077574  0.00917487    -0.17710
C966        C  0.12559426  0.93094036  0.96252935     0.10680
S967        S  0.08858323  0.07977986  0.04775482    -0.32680
S968        S  0.11937421  0.87820647  0.91783411    -0.32680
H969        H  0.13572967  0.90697486  0.87460541     0.28690
H970        H  0.11108108  0.11390131  0.01181543     0.28680
H971        H  0.14615634  0.05949949  0.95368736     0.19270
H972        H  0.08331951  0.89545223  0.02382291     0.19280
C973        C  0.82563825  0.96201918  0.04510819    -0.06550
C974        C  0.84714870  0.00830074  0.02572465    -0.17680
C975        C  0.86294443  0.00936891  0.97427366     0.10650
C976        C  0.85311646  0.96542897  0.94481042    -0.06480
C977        C  0.85904154  0.91907152  0.97128148    -0.17710
C978        C  0.83336645  0.91545000  0.01745584     0.10680
S979        S  0.87719413  0.06937701  0.94439503    -0.32680
S980        S  0.79604354  0.85642389  0.02511596    -0.32680
H981        H  0.74824161  0.88211565  0.02385372     0.28690
H982        H  0.85450244  0.05892902  0.89667251     0.28680
H983        H  0.84623975  0.04374641  0.04782060     0.19270
H984        H  0.85950449  0.88362655  0.95048833     0.19280
C985        C  0.97327784  0.14884454  0.03421868    -0.06550
C986        C  0.00746303  0.14453771  0.99343899    -0.17680
C987        C  0.02645396  0.19040180  0.97214902     0.10650
C988        C  0.02276044  0.23766766  0.00148482    -0.06480
C989        C  0.99929878  0.23495282  0.05043722    -0.17710
C990        C  0.98436619  0.18783259  0.07042261     0.10680
S991        S  0.03740738  0.18708843  0.90354306    -0.32680
S992        S  0.96315502  0.18548543  0.13663152    -0.32680
H993        H  0.99299941  0.22774077  0.15357871     0.28690
H994        H  0.06358846  0.13961034  0.90619874     0.28680
H995        H  0.00411893  0.11065104  0.96904225     0.19270
H996        H  0.99666944  0.26878151  0.07475073     0.19280
C997        C  0.03194884  0.81090599  0.00142098    -0.06550
C998        C  0.01099380  0.82679791  0.95364317    -0.17680
C999        C  0.96098239  0.84451531  0.95214355     0.10650
C1000       C  0.93253948  0.83633339  0.99800109    -0.06480
C1001       C  0.95931931  0.84908571  0.04310595    -0.17710
C1002       C  0.00980233  0.83186116  0.04676924     0.10680
S1003       S  0.93205762  0.85839717  0.88970495    -0.32680
S1004       S  0.04174959  0.83581128  0.10853563    -0.32680
H1005       H  0.08977913  0.81795838  0.09109592     0.28690
H1006       H  0.97429900  0.84514251  0.85836949     0.28680
H1007       H  0.02869782  0.81912420  0.91705036     0.19270
H1008       H  0.93875446  0.85917786  0.07779462     0.19280
loop_ 
_geom_bond_atom_site_label_1 
_geom_bond_atom_site_label_2 
_geom_bond_distance 
_geom_bond_site_symmetry_2 
_ccdc_geom_bond_type 
C1            C2   1.401   1_556  A
C1            C6   1.373       .  A
C1          C408   1.444       .  S
C2            C3   1.415       .  A
C2            H7   1.084       .  S
C3            C4   1.388       .  A
C3          C246   1.457       .  S
C4            C5   1.400       .  A
C4            H8   1.080       .  S
C5            C6   1.387   1_554  A
C5          C997   1.467       .  S
C6            H9   1.076       .  S
C10          C11   1.406       .  A
C10          C15   1.427       .  A
C10         C249   1.521       .  S
C11          C12   1.405   1_554  A
C11          H16   1.082       .  S
C12          C13   1.422       .  A
C12         C410   1.517       .  S
C13          C14   1.435       .  A
C13          H17   1.075       .  S
C14          C15   1.438   1_556  A
C14         C104   1.563       .  S
C15          H18   1.077       .  S
C19          C20   1.396       .  A
C19          C24   1.373       .  A
C19         C678   1.417       .  S
C20          C21   1.402   1_554  A
C20          H25   1.085       .  S
C21          C22   1.387       .  A
C21         C768   1.464       .  S
C22          C23   1.428   1_556  A
C22          H26   1.079       .  S
C23          C24   1.373       .  A
C23         C985   1.468       .  S
C24          H27   1.085       .  S
C28          C29   1.407   1_556  A
C28          C33   1.423       .  A
C28         C770   1.520       .  S
C29          C30   1.407       .  A
C29          H34   1.082       .  S
C30          C31   1.423       .  A
C30         C681   1.517       .  S
C31          C32   1.433       .  A
C31          H35   1.077       .  S
C32          C33   1.436   1_554  A
C32          C84   1.558       .  S
C33          H36   1.076       .  S
C37          C38   1.376       .  A
C37          C42   1.404       .  A
C37         C498   1.441       .  S
C38          C39   1.381       .  A
C38          H43   1.086       .  S
C39          C40   1.395   1_565  A
C39         C973   1.443       .  S
C40          C41   1.385       .  A
C40          H44   1.084       .  S
C41          C42   1.414   1_545  A
C41         C680   1.450       .  S
C42          H45   1.084       .  S
C46          C47   1.411   1_545  A
C46          C51   1.420       .  A
C46         C711   1.521       .  S
C47          C48   1.412       .  A
C47          H52   1.082       .  S
C48          C49   1.427       .  A
C48         C500   1.531       .  S
C49          C50   1.441       .  A
C49          H53   1.076       .  S
C50          C51   1.432   1_565  A
C50         C138   1.562       .  S
C51          H54   1.076       .  S
C55          C56   1.410   1_545  A
C55          C60   1.380       .  A
C55         C318   1.451       .  S
C56          C57   1.414       .  A
C56          H61   1.084       .  S
C57          C58   1.389       .  A
C57         C411   1.463       .  S
C58          C59   1.397       .  A
C58          H62   1.081       .  S
C59          C60   1.380   1_565  A
C59         C961   1.475       .  S
C60          H63   1.080       .  S
C64          C65   1.399       .  A
C64          C69   1.420       .  A
C64         C442   1.506       .  S
C65          C66   1.402   1_565  A
C65          H70   1.082       .  S
C66          C67   1.429       .  A
C66         C321   1.516       .  S
C67          C68   1.438   1_545  A
C67          H71   1.077       .  S
C68          C69   1.429       .  A
C68         C120   1.559       .  S
C69          H72   1.076       .  S
C73          C74   1.390       .  A
C73          C78   1.406       .  A
C73         C533   1.457       .  S
C74          C75   1.409       .  A
C74          H79   1.081       .  S
C75          C76   1.398   1_554  A
C75        C1000   1.493   1_554  S
C76          C77   1.381       .  A
C76          H80   1.075       .  S
C77          C78   1.405   1_556  A
C77         C606   1.454       .  S
C78          H81   1.084       .  S
C82          C83   1.426       .  A
C82          C87   1.407       .  A
C82         C530   1.522       .  S
C83          C84   1.435       .  A
C83          H88   1.077       .  S
C84          C85   1.431   1_554  A
C85          C86   1.420       .  A
C85          H89   1.076       .  S
C86          C87   1.409   1_556  A
C86         C609   1.515       .  S
C87          H90   1.083       .  S
C91          C92   1.407       .  A
C91          C96   1.405       .  A
C91         C354   1.455       .  S
C92          C93   1.386       .  A
C92          H97   1.083       .  S
C93          C94   1.406   1_556  A
C93         C988   1.499   1_556  S
C94          C95   1.397       .  A
C94          H98   1.082       .  S
C95          C96   1.405   1_554  A
C95         C822   1.467       .  S
C96          H99   1.083       .  S
C100        C101   1.411       .  A
C100        C105   1.422       .  A
C100        C350   1.517       .  S
C101        C102   1.404   1_556  A
C101        H106   1.082       .  S
C102        C103   1.428       .  A
C102        C824   1.522       .  S
C103        C104   1.435   1_554  A
C103        H107   1.076       .  S
C104        C105   1.435       .  A
C105        H108   1.076       .  S
C109        C110   1.378       .  A
C109        C114   1.410       .  A
C109        C608   1.444       .  S
C110        C111   1.391       .  A
C110        H115   1.082       .  S
C111        C112   1.406   1_565  A
C111        C976   1.482       .  S
C112        C113   1.384       .  A
C112        H116   1.080       .  S
C113        C114   1.414   1_545  A
C113        C771   1.461       .  S
C114        H117   1.084       .  S
C118        C119   1.424       .  A
C118        C123   1.412   1_545  A
C118        C802   1.527       .  S
C119        C120   1.433   1_545  A
C119        H124   1.077       .  S
C120        C121   1.439       .  A
C121        C122   1.423       .  A
C121        H125   1.076       .  S
C122        C123   1.416       .  A
C122        C639   1.530       .  S
C123        H126   1.082       .  S
C127        C128   1.377       .  A
C127        C132   1.399   1_545  A
C127        C825   1.456       .  S
C128        C129   1.404   1_545  A
C128        H133   1.075       .  S
C129        C130   1.404       .  A
C129        C964   1.497       .  S
C130        C131   1.391       .  A
C130        H134   1.076       .  S
C131        C132   1.406       .  A
C131        C248   1.451       .  S
C132        H135   1.085       .  S
C136        C137   1.423       .  A
C136        C141   1.399       .  A
C136        C279   1.504       .  S
C137        C138   1.428       .  A
C137        H142   1.076       .  S
C138        C139   1.437   1_565  A
C139        C140   1.428       .  A
C139        H143   1.076       .  S
C140        C141   1.400   1_545  A
C140        C856   1.513       .  S
C141        H144   1.083       .  S
C145        C146   1.404       .  A
C145        C150   1.392       .  A
C145        C803   1.440       .  S
C146        C147   1.412   1_655  A
C146        H151   1.084       .  S
C147        C148   1.407       .  A
C147        C320   1.460       .  S
C148        C149   1.420   1_455  A
C148        H152   1.083       .  S
C149        C150   1.382       .  A
C149        C949   1.490       .  S
C150        H153   1.084       .  S
C154        C155   1.402       .  A
C154        C159   1.429       .  A
C154        C800   1.517       .  S
C155        C156   1.405   1_655  A
C155        H160   1.083       .  S
C156        C157   1.423       .  A
C156        C351   1.514       .  S
C157        C158   1.435   1_455  A
C157        H161   1.075       .  S
C158        C159   1.435       .  A
C158        C210   1.563       .  S
C159        H162   1.077       .  S
C163        C164   1.368       .  A
C163        C168   1.399       .  A
C163        C642   1.454       .  S
C164        C165   1.388       .  A
C164        H169   1.079       .  S
C165        C166   1.393   1_655  A
C165        C952   1.447       .  S
C166        C167   1.393       .  A
C166        H170   1.085       .  S
C167        C168   1.408   1_455  A
C167        C443   1.457       .  S
C168        H171   1.084       .  S
C172        C173   1.402       .  A
C172        C177   1.423       .  A
C172        C638   1.509       .  S
C173        C174   1.405   1_655  A
C173        H178   1.083       .  S
C174        C175   1.431       .  A
C174        C440   1.522       .  S
C175        C176   1.441   1_455  A
C175        H179   1.077       .  S
C176        C177   1.428       .  A
C176        C194   1.564       .  S
C177        H180   1.076       .  S
C181        C182   1.394   1_455  A
C181        C186   1.364       .  A
C181        C282   1.442       .  S
C182        C183   1.413       .  A
C182        H187   1.084       .  S
C183        C184   1.400       .  A
C183        C501   1.457       .  S
C184        C185   1.400       .  A
C184        H188   1.084       .  S
C185        C186   1.380   1_655  A
C185        C937   1.453       .  S
C186        H189   1.083       .  S
C190        C191   1.412   1_455  A
C190        C195   1.421       .  A
C190        C278   1.519       .  S
C191        C192   1.410       .  A
C191        H196   1.082       .  S
C192        C193   1.430       .  A
C192        C532   1.534       .  S
C193        C194   1.444       .  A
C193        H197   1.077       .  S
C194        C195   1.430   1_655  A
C195        H198   1.077       .  S
C199        C200   1.378       .  A
C199        C204   1.405   1_455  A
C199        C857   1.444       .  S
C200        C201   1.385   1_455  A
C200        H205   1.086       .  S
C201        C202   1.414       .  A
C201        C940   1.491   1_655  S
C202        C203   1.407       .  A
C202        H206   1.084       .  S
C203        C204   1.418       .  A
C203        C714   1.465       .  S
C204        H207   1.084       .  S
C208        C209   1.421       .  A
C208        C213   1.411   1_455  A
C208        C854   1.523       .  S
C209        C210   1.434   1_455  A
C209        H214   1.075       .  S
C210        C211   1.438       .  A
C211        C212   1.428       .  A
C211        H215   1.077       .  S
C212        C213   1.411       .  A
C212        C710   1.528       .  S
C213        H216   1.082       .  S
C217        C218   1.398       .  A
C217        C222   1.402       .  A
C217        C284   1.463       .  S
C218        C219   1.426       .  A
C218        H223   1.082       .  S
C219        C220   1.385       .  A
C219        C928   1.493       .  S
C220        C221   1.383       .  A
C220        H224   1.083       .  S
C221        C222   1.398       .  A
C221        C859   1.431       .  S
C222        H225   1.085       .  S
C226        C227   1.396       .  A
C226        C231   1.426       .  A
C226        C858   1.503       .  S
C227        C228   1.395       .  A
C227        H232   1.083       .  S
C228        C229   1.428       .  A
C228        C281   1.506       .  S
C229        C230   1.434       .  A
C229        H233   1.076       .  S
C230        C231   1.433       .  A
C230        C462   1.564   1_455  S
C231        H234   1.076       .  S
O235       Zr271   2.472       .  S
O235        C246   1.299       .  A
O236       Zr270   2.455       .  S
O236        C247   1.296       .  A
O237       Zr243   2.479       .  S
O237        C248   1.302       .  A
O238       Zr243   2.491       .  S
O238        C249   1.304       .  A
O239       Zr273   2.470       .  S
O239        C249   1.297       .  A
O240       Zr272   2.372       .  S
O240        C248   1.281       .  A
O241       Zr243   2.498       .  S
O241        C247   1.302       .  A
O242       Zr243   2.383       .  S
O242        C246   1.284       .  A
Zr243       O244   2.304       .  S
Zr243       O245   2.382       .  S
Zr243       O253   2.357       .  S
Zr243       O251   2.342       .  S
O244       Zr270   2.331       .  S
O244       Zr273   2.338       .  S
O245       Zr271   2.367       .  S
O245       Zr272   2.371       .  S
C247        C480   1.525       .  S
H250        O251   0.965       .  S
O251       Zr270   2.296       .  S
O251       Zr272   2.353       .  S
H252        O253   0.964       .  S
O253       Zr271   2.342       .  S
O253       Zr273   2.304       .  S
O254       Zr270   2.445       .  S
O254        C277   1.294       .  A
O255       Zr271   2.475       .  S
O255        C278   1.299       .  A
O256       Zr272   2.492       .  S
O256        C279   1.303       .  A
O257       Zr273   2.472       .  S
O257        C280   1.299       .  A
O258       Zr273   2.504       .  S
O258        C281   1.307       .  A
O259       Zr272   2.437       .  S
O259        C282   1.296       .  A
O260       Zr274   2.517       .  S
O260        C283   1.309       .  A
O261       Zr274   2.481       .  S
O261        C284   1.300       .  A
O262       Zr272   2.456       .  S
O262        C283   1.294       .  A
O263       Zr273   2.387       .  S
O263        C284   1.284       .  A
O264       Zr270   2.419       .  S
O264        C279   1.286       .  A
O265       Zr271   2.382       .  S
O265        C282   1.280       .  A
O266       Zr271   2.413       .  S
O266        C281   1.285       .  A
O267       Zr270   2.338       .  S
O267        C280   1.275       .  A
O268       Zr274   2.367       .  S
O268        C277   1.281       .  A
O269       Zr274   2.479       .  S
O269        C278   1.299       .  A
Zr270       O276   2.312       .  S
Zr270       O288   2.371       .  S
Zr271       O275   2.330       .  S
Zr271       O286   2.346       .  S
Zr272       O276   2.285       .  S
Zr272       O286   2.341       .  S
Zr273       O275   2.356       .  S
Zr273       O288   2.375       .  S
Zr274       O275   2.349       .  S
Zr274       O276   2.342       .  S
Zr274       O288   2.377       .  S
Zr274       O286   2.307       .  S
C277        C361   1.460       .  S
C280        C471   1.431       .  S
C283        C372   1.528       .  S
H285        O286   0.964       .  S
H287        O288   0.966       .  S
C289        C290   1.395       .  A
C289        C294   1.403       .  A
C289        C853   1.461       .  S
C290        C291   1.415       .  A
C290        H295   1.079       .  S
C291        C292   1.411       .  A
C291        C913   1.509       .  S
C292        C293   1.386       .  A
C292        H296   1.084       .  S
C293        C294   1.400       .  A
C293        C352   1.452       .  S
C294        H297   1.085       .  S
C298        C299   1.403       .  A
C298        C303   1.429       .  A
C298        C860   1.518       .  S
C299        C300   1.403       .  A
C299        H304   1.082       .  S
C300        C301   1.420       .  A
C300        C319   1.513       .  S
C301        C302   1.434   1_545  A
C301        H305   1.075       .  S
C302        C303   1.437   1_565  A
C302        C374   1.562       .  S
C303        H306   1.077       .  S
O307       Zr343   2.434       .  S
O307        C318   1.295       .  A
O308       Zr342   2.473       .  S
O308        C319   1.300       .  A
O309       Zr315   2.499       .  S
O309        C320   1.304       .  A
O310       Zr315   2.494       .  S
O310        C321   1.305       .  A
O311       Zr345   2.452       .  S
O311        C321   1.293       .  A
O312       Zr344   2.366       .  S
O312        C320   1.280       .  A
O313       Zr315   2.461       .  S
O313        C319   1.296       .  A
O314       Zr315   2.399       .  S
O314        C318   1.285       .  A
Zr315       O316   2.330       .  S
Zr315       O317   2.372       .  S
Zr315       O325   2.349       .  S
Zr315       O323   2.351       .  S
O316       Zr342   2.355       .  S
O316       Zr345   2.348       .  S
O317       Zr343   2.360       .  S
O317       Zr344   2.371       .  S
H322        O323   0.965       .  S
O323       Zr342   2.321       .  S
O323       Zr344   2.346       .  S
H324        O325   0.963       .  S
O325       Zr343   2.333       .  S
O325       Zr345   2.296       .  S
O326       Zr342   2.477       .  S
O326        C349   1.300       .  A
O327       Zr343   2.465       .  S
O327        C350   1.298       .  A
O328       Zr344   2.475       .  S
O328        C351   1.300       .  A
O329       Zr345   2.476       .  S
O329        C352   1.301       .  A
O330       Zr345   2.516       .  S
O330        C353   1.308       .  A
O331       Zr344   2.426       .  S
O331        C354   1.292       .  A
O332       Zr346   2.498       .  S
O332        C355   1.306       .  A
O333       Zr346   2.450       .  S
O333        C356   1.298       .  A
O334       Zr344   2.455       .  S
O334        C355   1.294       .  A
O335       Zr345   2.353       .  S
O335        C356   1.275       .  A
O336       Zr342   2.461       .  S
O336        C351   1.295       .  A
O337       Zr343   2.381       .  S
O337        C354   1.283       .  A
O338       Zr343   2.420       .  S
O338        C353   1.286       .  A
O339       Zr342   2.374       .  S
O339        C352   1.281       .  A
O340       Zr346   2.379       .  S
O340        C349   1.284       .  A
O341       Zr346   2.486       .  S
O341        C350   1.300       .  A
Zr342       O348   2.321       .  S
Zr342       O360   2.383       .  S
Zr343       O347   2.310       .  S
Zr343       O358   2.335       .  S
Zr344       O348   2.293       .  S
Zr344       O358   2.334       .  S
Zr345       O347   2.346       .  S
Zr345       O360   2.378       .  S
Zr346       O347   2.333       .  S
Zr346       O348   2.347       .  S
Zr346       O360   2.371       .  S
Zr346       O358   2.275       .  S
C349        C383   1.474       .  S
C353        C730   1.515       .  S
C355        C388   1.520       .  S
C356        C721   1.432       .  S
H357        O358   0.962       .  S
H359        O360   0.966       .  S
C361        C362   1.409       .  A
C361        C366   1.405       .  A
C362        C363   1.403       .  A
C362        H367   1.083       .  S
C363        C364   1.398       .  A
C363        C439   1.474       .  S
C364        C365   1.411       .  A
C364        H368   1.083       .  S
C365        C366   1.392       .  A
C365        C901   1.499       .  S
C366        H369   1.082       .  S
C370        C371   1.412       .  A
C370        C375   1.419       .  A
C370        C446   1.519       .  S
C371        C372   1.406       .  A
C371        H376   1.082       .  S
C372        C373   1.430       .  A
C373        C374   1.438       .  A
C373        H377   1.077       .  S
C374        C375   1.435       .  A
C375        H378   1.075       .  S
C379        C380   1.400       .  A
C379        C384   1.409       .  A
C379        C445   1.451       .  S
C380        C381   1.381       .  A
C380        H385   1.082       .  S
C381        C382   1.412       .  A
C381        C925   1.502       .  S
C382        C383   1.397       .  A
C382        H386   1.082       .  S
C383        C384   1.405       .  A
C384        H387   1.083       .  S
C388        C389   1.404       .  A
C388        C393   1.428       .  A
C389        C390   1.405       .  A
C389        H394   1.082       .  S
C390        C391   1.428       .  A
C390        C444   1.519       .  S
C391        C392   1.437       .  A
C391        H395   1.077       .  S
C392        C393   1.437       .  A
C392        C588   1.567   1_455  S
C393        H396   1.076       .  S
O397       Zr433   2.447       .  S
O397        C408   1.295       .  A
O398       Zr432   2.474       .  S
O398        C409   1.300       .  A
O399       Zr405   2.477       .  S
O399        C410   1.301       .  A
O400       Zr405   2.466       .  S
O400        C411   1.299       .  A
O401       Zr435   2.389       .  S
O401        C411   1.285       .  A
O402       Zr434   2.463       .  S
O402        C410   1.295       .  A
O403       Zr405   2.423       .  S
O403        C409   1.288       .  A
O404       Zr405   2.384       .  S
O404        C408   1.281       .  A
Zr405       O406   2.335       .  S
Zr405       O407   2.331       .  S
Zr405       O415   2.374       .  S
Zr405       O413   2.326       .  S
O406       Zr432   2.311       .  S
O406       Zr435   2.345       .  S
O407       Zr433   2.333       .  S
O407       Zr434   2.315       .  S
C409        C568   1.497       .  S
H412        O413   0.965       .  S
O413       Zr432   2.354       .  S
O413       Zr434   2.338       .  S
H414        O415   0.967       .  S
O415       Zr433   2.373       .  S
O415       Zr435   2.384       .  S
O416       Zr432   2.471       .  S
O416        C439   1.299       .  A
O417       Zr433   2.494       .  S
O417        C440   1.304       .  A
O418       Zr434   2.487       .  S
O418        C441   1.302       .  A
O419       Zr435   2.481       .  S
O419        C442   1.302       .  A
O420       Zr435   2.435       .  S
O420        C443   1.294       .  A
O421       Zr434   2.501       .  S
O421        C444   1.306       .  A
O422       Zr436   2.429       .  S
O422        C445   1.293       .  A
O423       Zr436   2.453       .  S
O423        C446   1.295       .  A
O424       Zr434   2.372       .  S
O424        C445   1.282       .  A
O425       Zr435   2.499       .  S
O425        C446   1.303       .  A
O426       Zr432   2.380       .  S
O426        C441   1.281       .  A
O427       Zr433   2.460       .  S
O427        C444   1.295       .  A
O428       Zr433   2.385       .  S
O428        C443   1.285       .  A
O429       Zr432   2.436       .  S
O429        C442   1.291       .  A
O430       Zr436   2.392       .  S
O430        C439   1.286       .  A
O431       Zr436   2.460       .  S
O431        C440   1.294       .  A
Zr432       O438   2.369       .  S
Zr432       O450   2.338       .  S
Zr433       O437   2.343       .  S
Zr433       O448   2.293       .  S
Zr434       O438   2.373       .  S
Zr434       O448   2.353       .  S
Zr435       O437   2.337       .  S
Zr435       O450   2.285       .  S
Zr436       O437   2.311       .  S
Zr436       O438   2.369       .  S
Zr436       O450   2.340       .  S
Zr436       O448   2.329       .  S
C441        C561   1.458       .  S
H447        O448   0.963       .  S
H449        O450   0.962       .  S
C451        C452   1.399       .  A
C451        C456   1.381       .  A
C451        C716   1.440       .  S
C452        C453   1.398       .  A
C452        H457   1.085       .  S
C453        C454   1.393       .  A
C453        C529   1.469       .  S
C454        C455   1.425       .  A
C454        H458   1.082       .  S
C455        C456   1.396       .  A
C455        C892   1.510       .  S
C456        H459   1.080       .  S
C460        C461   1.425       .  A
C460        C465   1.409       .  A
C460        C536   1.523       .  S
C461        C462   1.437       .  A
C461        H466   1.076       .  S
C462        C463   1.438       .  A
C463        C464   1.426       .  A
C463        H467   1.076       .  S
C464        C465   1.408       .  A
C464        C713   1.525       .  S
C465        H468   1.082       .  S
C469        C470   1.409       .  A
C469        C474   1.384       .  A
C469        C535   1.446       .  S
C470        C471   1.401       .  A
C470        H475   1.084       .  S
C471        C472   1.383       .  A
C472        C473   1.383       .  A
C472        H476   1.086       .  S
C473        C474   1.413       .  A
C473        C880   1.496       .  S
C474        H477   1.081       .  S
C478        C479   1.407       .  A
C478        C483   1.424       .  A
C478        C534   1.521       .  S
C479        C480   1.412       .  A
C479        H484   1.082       .  S
C480        C481   1.422       .  A
C481        C482   1.440       .  A
C481        H485   1.076       .  S
C482        C483   1.432       .  A
C482        C570   1.560   1_554  S
C483        H486   1.077       .  S
O487       Zr523   2.485       .  S
O487        C498   1.303       .  A
O488       Zr522   2.504       .  S
O488        C499   1.306       .  A
O489       Zr495   2.485       .  S
O489        C500   1.301       .  A
O490       Zr495   2.457       .  S
O490        C501   1.296       .  A
O491       Zr525   2.381       .  S
O491        C501   1.284       .  A
O492       Zr524   2.487       .  S
O492        C500   1.299       .  A
O493       Zr495   2.421       .  S
O493        C499   1.286       .  A
O494       Zr495   2.344       .  S
O494        C498   1.273       .  A
Zr495       O496   2.340       .  S
Zr495       O497   2.341       .  S
Zr495       O505   2.373       .  S
Zr495       O503   2.319       .  S
O496       Zr522   2.305       .  S
O496       Zr525   2.351       .  S
O497       Zr523   2.340       .  S
O497       Zr524   2.316       .  S
C499        C552   1.509       .  S
H502        O503   0.966       .  S
O503       Zr522   2.367       .  S
O503       Zr524   2.361       .  S
H504        O505   0.966       .  S
O505       Zr523   2.365       .  S
O505       Zr525   2.379       .  S
O506       Zr522   2.469       .  S
O506        C529   1.298       .  A
O507       Zr523   2.498       .  S
O507        C530   1.305       .  A
O508       Zr524   2.499       .  S
O508        C531   1.304       .  A
O509       Zr525   2.497       .  S
O509        C532   1.305       .  A
O510       Zr525   2.478       .  S
O510        C533   1.301       .  A
O511       Zr524   2.501       .  S
O511        C534   1.305       .  A
O512       Zr526   2.462       .  S
O512        C535   1.297       .  A
O513       Zr526   2.482       .  S
O513        C536   1.302       .  A
O514       Zr524   2.384       .  S
O514        C535   1.283       .  A
O515       Zr525   2.479       .  S
O515        C536   1.298       .  A
O516       Zr522   2.368       .  S
O516        C531   1.281       .  A
O517       Zr523   2.458       .  S
O517        C534   1.295       .  A
O518       Zr523   2.380       .  S
O518        C533   1.282       .  A
O519       Zr522   2.487       .  S
O519        C532   1.300       .  A
O520       Zr526   2.408       .  S
O520        C529   1.288       .  A
O521       Zr526   2.458       .  S
O521        C530   1.294       .  A
Zr522       O528   2.369       .  S
Zr522       O540   2.349       .  S
Zr523       O527   2.355       .  S
Zr523       O538   2.309       .  S
Zr524       O528   2.370       .  S
Zr524       O538   2.362       .  S
Zr525       O527   2.339       .  S
Zr525       O540   2.321       .  S
Zr526       O527   2.319       .  S
Zr526       O528   2.359       .  S
Zr526       O540   2.356       .  S
Zr526       O538   2.349       .  S
C531        C545   1.470       .  S
H537        O538   0.964       .  S
H539        O540   0.965       .  S
C541        C542   1.384       .  A
C541        C546   1.391       .  A
C541        C637   1.435       .  S
C542        C543   1.386       .  A
C542        H547   1.081       .  S
C543        C544   1.427       .  A
C543        C904   1.488       .  S
C544        C545   1.397       .  A
C544        H548   1.079       .  S
C545        C546   1.401       .  A
C546        H549   1.085       .  S
C550        C551   1.398       .  A
C550        C555   1.426       .  A
C550        C643   1.507       .  S
C551        C552   1.395       .  A
C551        H556   1.083       .  S
C552        C553   1.428       .  A
C553        C554   1.435       .  A
C553        H557   1.076       .  S
C554        C555   1.435       .  A
C554        C750   1.564       .  S
C555        H558   1.076       .  S
C559        C560   1.414       .  A
C559        C564   1.413       .  A
C559        C640   1.472       .  S
C560        C561   1.401       .  A
C560        H565   1.084       .  S
C561        C562   1.383       .  A
C562        C563   1.404       .  A
C562        H566   1.084       .  S
C563        C564   1.416       .  A
C563        C865   1.514       .  S
C564        H567   1.083       .  S
C568        C569   1.417       .  A
C568        C573   1.396       .  A
C569        C570   1.426       .  A
C569        H574   1.075       .  S
C570        C571   1.440       .  A
C571        C572   1.432       .  A
C571        H575   1.077       .  S
C572        C573   1.397       .  A
C572        C607   1.513       .  S
C573        H576   1.083       .  S
C577        C578   1.396       .  A
C577        C582   1.409       .  A
C577        C805   1.462       .  S
C578        C579   1.393       .  A
C578        H583   1.083       .  S
C579        C580   1.390       .  A
C579        C889   1.508       .  S
C580        C581   1.403       .  A
C580        H584   1.081       .  S
C581        C582   1.406       .  A
C581        C644   1.461       .  S
C582        H585   1.083       .  S
C586        C587   1.430       .  A
C586        C591   1.399       .  A
C586        C641   1.516       .  S
C587        C588   1.438       .  A
C587        H592   1.077       .  S
C588        C589   1.436       .  A
C589        C590   1.427       .  A
C589        H593   1.076       .  S
C590        C591   1.400       .  A
C590        C804   1.513       .  S
C591        H594   1.082       .  S
O595       Zr631   2.461       .  S
O595        C606   1.298       .  A
O596       Zr630   2.507       .  S
O596        C607   1.309       .  A
O597       Zr603   2.503       .  S
O597        C608   1.306       .  A
O598       Zr603   2.474       .  S
O598        C609   1.300       .  A
O599       Zr633   2.471       .  S
O599        C609   1.298       .  A
O600       Zr632   2.338       .  S
O600        C608   1.273       .  A
O601       Zr603   2.429       .  S
O601        C607   1.288       .  A
O602       Zr603   2.389       .  S
O602        C606   1.283       .  A
Zr603       O604   2.335       .  S
Zr603       O605   2.365       .  S
Zr603       O613   2.354       .  S
Zr603       O611   2.329       .  S
O604       Zr630   2.353       .  S
O604       Zr633   2.353       .  S
O605       Zr631   2.376       .  S
O605       Zr632   2.375       .  S
H610        O611   0.964       .  S
O611       Zr630   2.300       .  S
O611       Zr632   2.341       .  S
H612        O613   0.965       .  S
O613       Zr631   2.343       .  S
O613       Zr633   2.326       .  S
O614       Zr630   2.469       .  S
O614        C637   1.300       .  A
O615       Zr631   2.499       .  S
O615        C638   1.304       .  A
O616       Zr632   2.471       .  S
O616        C639   1.299       .  A
O617       Zr633   2.503       .  S
O617        C640   1.304       .  A
O618       Zr633   2.501       .  S
O618        C641   1.307       .  A
O619       Zr632   2.460       .  S
O619        C642   1.301       .  A
O620       Zr634   2.481       .  S
O620        C643   1.301       .  A
O621       Zr634   2.426       .  S
O621        C644   1.290       .  A
O622       Zr632   2.430       .  S
O622        C643   1.287       .  A
O623       Zr633   2.403       .  S
O623        C644   1.288       .  A
O624       Zr630   2.507       .  S
O624        C639   1.305       .  A
O625       Zr631   2.356       .  S
O625        C642   1.277       .  A
O626       Zr631   2.440       .  S
O626        C641   1.290       .  A
O627       Zr630   2.387       .  S
O627        C640   1.284       .  A
O628       Zr634   2.344       .  S
O628        C637   1.275       .  A
O629       Zr634   2.433       .  S
O629        C638   1.290       .  A
Zr630       O636   2.349       .  S
Zr630       O648   2.376       .  S
Zr631       O635   2.293       .  S
Zr631       O646   2.359       .  S
Zr632       O636   2.308       .  S
Zr632       O646   2.326       .  S
Zr633       O635   2.338       .  S
Zr633       O648   2.357       .  S
Zr634       O635   2.324       .  S
Zr634       O636   2.344       .  S
Zr634       O648   2.366       .  S
Zr634       O646   2.275       .  S
H645        O646   0.964       .  S
H647        O648   0.965       .  S
C649        C650   1.401       .  A
C649        C654   1.401       .  A
C649        C712   1.465       .  S
C650        C651   1.412       .  A
C650        H655   1.082       .  S
C651        C652   1.393       .  A
C651        C877   1.481       .  S
C652        C653   1.379       .  A
C652        H656   1.080       .  S
C653        C654   1.395       .  A
C653        C855   1.446       .  S
C654        H657   1.085       .  S
C658        C659   1.394       .  A
C658        C663   1.426       .  A
C658        C679   1.510       .  S
C659        C660   1.403       .  A
C659        H664   1.082       .  S
C660        C661   1.424       .  A
C660        C823   1.508       .  S
C661        C662   1.435       .  A
C661        H665   1.077       .  S
C662        C663   1.433       .  A
C662        C732   1.561   1_554  S
C663        H666   1.076       .  S
O667       Zr703   2.462       .  S
O667        C678   1.299       .  A
O668       Zr702   2.506       .  S
O668        C679   1.307       .  A
O669       Zr675   2.458       .  S
O669        C680   1.296       .  A
O670       Zr675   2.485       .  S
O670        C681   1.301       .  A
O671       Zr705   2.462       .  S
O671        C681   1.294       .  A
O672       Zr704   2.389       .  S
O672        C680   1.284       .  A
O673       Zr675   2.415       .  S
O673        C679   1.285       .  A
O674       Zr675   2.315       .  S
O674        C678   1.268       .  A
Zr675       O676   2.301       .  S
Zr675       O677   2.369       .  S
Zr675       O685   2.354       .  S
Zr675       O683   2.327       .  S
O676       Zr702   2.348       .  S
O676       Zr705   2.347       .  S
O677       Zr703   2.365       .  S
O677       Zr704   2.361       .  S
H682        O683   0.963       .  S
O683       Zr702   2.299       .  S
O683       Zr704   2.370       .  S
H684        O685   0.965       .  S
O685       Zr703   2.342       .  S
O685       Zr705   2.303       .  S
O686       Zr702   2.451       .  S
O686        C709   1.296       .  A
O687       Zr703   2.492       .  S
O687        C710   1.303       .  A
O688       Zr704   2.481       .  S
O688        C711   1.302       .  A
O689       Zr705   2.443       .  S
O689        C712   1.293       .  A
O690       Zr705   2.487       .  S
O690        C713   1.302       .  A
O691       Zr704   2.496       .  S
O691        C714   1.303       .  A
O692       Zr706   2.486       .  S
O692        C715   1.302       .  A
O693       Zr706   2.463       .  S
O693        C716   1.299       .  A
O694       Zr704   2.484       .  S
O694        C715   1.299       .  A
O695       Zr705   2.351       .  S
O695        C716   1.276       .  A
O696       Zr702   2.485       .  S
O696        C711   1.301       .  A
O697       Zr703   2.378       .  S
O697        C714   1.282       .  A
O698       Zr703   2.471       .  S
O698        C713   1.297       .  A
O699       Zr702   2.424       .  S
O699        C712   1.293       .  A
O700       Zr706   2.389       .  S
O700        C709   1.285       .  A
O701       Zr706   2.481       .  S
O701        C710   1.299       .  A
Zr702       O708   2.348       .  S
Zr702       O720   2.378       .  S
Zr703       O707   2.312       .  S
Zr703       O718   2.351       .  S
Zr704       O708   2.310       .  S
Zr704       O718   2.348       .  S
Zr705       O707   2.349       .  S
Zr705       O720   2.384       .  S
Zr706       O707   2.338       .  S
Zr706       O708   2.339       .  S
Zr706       O720   2.378       .  S
Zr706       O718   2.321       .  S
C709        C743   1.470       .  S
C715        C748   1.529       .  S
H717        O718   0.965       .  S
H719        O720   0.966       .  S
C721        C722   1.369       .  A
C721        C726   1.396       .  A
C722        C723   1.374       .  A
C722        H727   1.082       .  S
C723        C724   1.415       .  A
C723        C868   1.468       .  S
C724        C725   1.407       .  A
C724        H728   1.083       .  S
C725        C726   1.407       .  A
C725        C801   1.468       .  S
C726        H729   1.085       .  S
C730        C731   1.427       .  A
C730        C735   1.397       .  A
C731        C732   1.434       .  A
C731        H736   1.076       .  S
C732        C733   1.434       .  A
C733        C734   1.423       .  A
C733        H737   1.076       .  S
C734        C735   1.406       .  A
C734        C769   1.510       .  S
C735        H738   1.083       .  S
C739        C740   1.396       .  A
C739        C744   1.405       .  A
C739        C799   1.453       .  S
C740        C741   1.380       .  A
C740        H745   1.080       .  S
C741        C742   1.404       .  A
C741        C916   1.509       .  S
C742        C743   1.406       .  A
C742        H746   1.084       .  S
C743        C744   1.413       .  A
C744        H747   1.083       .  S
C748        C749   1.427       .  A
C748        C753   1.411       .  A
C749        C750   1.438   1_545  A
C749        H754   1.076   1_545  S
C750        C751   1.437   1_565  A
C751        C752   1.424       .  A
C751        H755   1.076       .  S
C752        C753   1.412       .  A
C752        C806   1.526       .  S
C753        H756   1.082       .  S
O757       Zr793   2.485       .  S
O757        C768   1.303       .  A
O758       Zr792   2.458       .  S
O758        C769   1.297       .  A
O759       Zr765   2.474       .  S
O759        C770   1.300       .  A
O760       Zr765   2.464       .  S
O760        C771   1.298       .  A
O761       Zr795   2.402       .  S
O761        C771   1.287       .  A
O762       Zr794   2.475       .  S
O762        C770   1.298       .  A
O763       Zr765   2.467       .  S
O763        C769   1.295       .  A
O764       Zr765   2.367       .  S
O764        C768   1.281       .  A
Zr765       O766   2.319       .  S
Zr765       O767   2.354       .  S
Zr765       O775   2.383       .  S
Zr765       O773   2.314       .  S
O766       Zr792   2.305       .  S
O766       Zr795   2.354       .  S
O767       Zr793   2.343       .  S
O767       Zr794   2.315       .  S
H772        O773   0.965       .  S
O773       Zr792   2.340       .  S
O773       Zr794   2.346       .  S
H774        O775   0.966       .  S
O775       Zr793   2.387       .  S
O775       Zr795   2.375       .  S
O776       Zr792   2.410       .  S
O776        C799   1.289       .  A
O777       Zr793   2.511       .  S
O777        C800   1.308       .  A
O778       Zr794   2.453       .  S
O778        C801   1.295       .  A
O779       Zr795   2.492       .  S
O779        C802   1.304       .  A
O780       Zr795   2.500       .  S
O780        C803   1.305       .  A
O781       Zr794   2.487       .  S
O781        C804   1.303       .  A
O782       Zr796   2.447       .  S
O782        C805   1.296       .  A
O783       Zr796   2.483       .  S
O783        C806   1.302       .  A
O784       Zr794   2.396       .  S
O784        C805   1.287       .  A
O785       Zr795   2.488       .  S
O785        C806   1.301       .  A
O786       Zr792   2.424       .  S
O786        C801   1.292       .  A
O787       Zr793   2.449       .  S
O787        C804   1.291       .  A
O788       Zr793   2.335       .  S
O788        C803   1.257       .  A
O789       Zr792   2.481       .  S
O789        C802   1.300       .  A
O790       Zr796   2.402       .  S
O790        C799   1.287       .  A
O791       Zr796   2.437       .  S
O791        C800   1.290       .  A
Zr792       O798   2.373       .  S
Zr792       O810   2.342       .  S
Zr793       O797   2.354       .  S
Zr793       O808   2.274       .  S
Zr794       O798   2.383       .  S
Zr794       O808   2.339       .  S
Zr795       O797   2.329       .  S
Zr795       O810   2.303       .  S
Zr796       O797   2.313       .  S
Zr796       O798   2.371       .  S
Zr796       O810   2.336       .  S
Zr796       O808   2.349       .  S
H807        O808   0.962       .  S
H809        O810   0.963       .  S
O811       Zr847   2.474       .  S
O811        C822   1.298       .  A
O812       Zr846   2.467       .  S
O812        C823   1.299       .  A
O813       Zr819   2.513       .  S
O813        C824   1.308       .  A
O814       Zr819   2.458       .  S
O814        C825   1.298       .  A
O815       Zr849   2.388       .  S
O815        C825   1.283       .  A
O816       Zr848   2.444       .  S
O816        C824   1.291       .  A
O817       Zr819   2.455       .  S
O817        C823   1.293       .  A
O818       Zr819   2.367       .  S
O818        C822   1.280       .  A
Zr819       O820   2.336       .  S
Zr819       O821   2.341       .  S
Zr819       O829   2.384       .  S
Zr819       O827   2.311       .  S
O820       Zr846   2.315       .  S
O820       Zr849   2.351       .  S
O821       Zr847   2.325       .  S
O821       Zr848   2.278       .  S
H826        O827   0.965       .  S
O827       Zr846   2.352       .  S
O827       Zr848   2.339       .  S
H828        O829   0.966       .  S
O829       Zr847   2.378       .  S
O829       Zr849   2.374       .  S
O830       Zr846   2.462       .  S
O830        C853   1.297       .  A
O831       Zr847   2.478       .  S
O831        C854   1.300       .  A
O832       Zr848   2.449       .  S
O832        C855   1.296       .  A
O833       Zr849   2.494       .  S
O833        C856   1.305       .  A
O834       Zr849   2.507       .  S
O834        C857   1.307       .  A
O835       Zr848   2.495       .  S
O835        C858   1.304       .  A
O836       Zr850   2.486       .  S
O836        C859   1.304       .  A
O837       Zr850   2.501       .  S
O837        C860   1.307       .  A
O838       Zr848   2.328       .  S
O838        C859   1.271       .  A
O839       Zr849   2.452       .  S
O839        C860   1.293       .  A
O840       Zr846   2.377       .  S
O840        C855   1.280       .  A
O841       Zr847   2.414       .  S
O841        C858   1.285       .  A
O842       Zr847   2.331       .  S
O842        C857   1.272       .  A
O843       Zr846   2.439       .  S
O843        C856   1.290       .  A
O844       Zr850   2.394       .  S
O844        C853   1.285       .  A
O845       Zr850   2.476       .  S
O845        C854   1.299       .  A
Zr846       O852   2.350       .  S
Zr846       O864   2.342       .  S
Zr847       O851   2.340       .  S
Zr847       O862   2.304       .  S
Zr848       O852   2.362       .  S
Zr848       O862   2.355       .  S
Zr849       O851   2.334       .  S
Zr849       O864   2.327       .  S
Zr850       O851   2.312       .  S
Zr850       O852   2.358       .  S
Zr850       O864   2.351       .  S
Zr850       O862   2.346       .  S
H861        O862   0.965       .  S
H863        O864   0.965       .  S
C865        C866   1.397       .  A
C865        C870   1.401       .  A
C866        C867   1.405       .  A
C866        H875   1.079       .  S
C867        C868   1.451       .  A
C867        S871   1.819       .  S
C868        C869   1.414       .  A
C869        C870   1.395       .  A
C869        H876   1.083       .  S
C870        S872   1.785       .  S
S871        H874   1.407       .  S
S872        H873   1.408       .  S
C877        C878   1.428       .  A
C877        C882   1.433       .  A
C878        C879   1.403       .  A
C878        H887   1.081       .  S
C879        C880   1.382       .  A
C879        S883   1.775       .  S
C880        C881   1.396       .  A
C881        C882   1.398       .  A
C881        H888   1.078       .  S
C882        S884   1.813       .  S
S883        H886   1.400       .  S
S884        H885   1.407       .  S
C889        C890   1.431       .  A
C889        C894   1.443       .  A
C890        C891   1.392       .  A
C890        H899   1.078       .  S
C891        C892   1.398       .  A
C891        S895   1.793       .  S
C892        C893   1.393       .  A
C893        C894   1.397       .  A
C893        H900   1.081       .  S
C894        S896   1.788       .  S
S895        H898   1.407       .  S
S896        H897   1.406       .  S
C901        C902   1.403       .  A
C901        C906   1.439       .  A
C902        C903   1.384       .  A
C902        H911   1.083       .  S
C903        C904   1.413       .  A
C903        S907   1.800       .  S
C904        C905   1.390       .  A
C905        C906   1.400       .  A
C905        H912   1.084       .  S
C906        S908   1.801       .  S
S907        H910   1.407       .  S
S908        H909   1.407       .  S
C913        C914   1.399       .  A
C913        C918   1.391       .  A
C914        C915   1.414       .  A
C914        H923   1.082       .  S
C915        C916   1.448       .  A
C915        S919   1.803       .  S
C916        C917   1.424       .  A
C917        C918   1.384       .  A
C917        H924   1.078       .  S
C918        S920   1.764       .  S
S919        H922   1.402       .  S
S920        H921   1.408       .  S
C925        C926   1.401       .  A
C925        C930   1.452       .  A
C926        C927   1.373       .  A
C926        H935   1.080       .  S
C927        C928   1.409       .  A
C927        S931   1.782       .  S
C928        C929   1.389       .  A
C929        C930   1.407       .  A
C929        H936   1.084       .  S
C930        S932   1.800       .  S
S931        H934   1.408       .  S
S932        H933   1.407       .  S
C937        C938   1.415       .  A
C937        C942   1.428   1_655  A
C938        C939   1.400       .  A
C938        H947   1.081       .  S
C939        C940   1.384   1_665  A
C939        S943   1.763       .  S
C940        C941   1.405   1_545  A
C941        C942   1.385       .  A
C941        H948   1.079   1_565  S
C942        S944   1.814       .  S
S943        H946   1.409   1_565  S
S944        H945   1.407       .  S
C949        C950   1.411       .  A
C949        C954   1.377   1_545  A
C950        C951   1.384   1_545  A
C950        H959   1.078       .  S
C951        C952   1.411       .  A
C951        S955   1.813       .  S
C952        C953   1.415   1_655  A
C953        C954   1.391   1_455  A
C953        H960   1.083       .  S
C954        S956   1.755   1_655  S
S955        H958   1.407       .  S
S956        H957   1.399       .  S
C961        C962   1.412   1_565  A
C961        C966   1.405       .  A
C962        C963   1.395   1_556  A
C962        H971   1.079       .  S
C963        C964   1.411   1_545  A
C963        S967   1.801       .  S
C964        C965   1.399       .  A
C965        C966   1.391   1_554  A
C965        H972   1.068       .  S
C966        S968   1.798       .  S
S967        H970   1.407       .  S
S968        H969   1.408       .  S
C973        C974   1.411   1_565  A
C973        C978   1.419       .  A
C974        C975   1.394   1_554  A
C974        H983   1.083       .  S
C975        C976   1.394   1_545  A
C975        S979   1.773       .  S
C976        C977   1.391       .  A
C977        C978   1.371   1_556  A
C977        H984   1.065       .  S
C978        S980   1.816       .  S
S979        H982   1.395       .  S
S980        H981   1.408       .  S
C985        C986   1.382   1_654  A
C985        C990   1.408       .  A
C986        C987   1.397       .  A
C986        H995   1.085       .  S
C987        C988   1.445   1_556  A
C987        S991   1.801       .  S
C988        C989   1.407   1_455  A
C989        C990   1.379       .  A
C989        H996   1.082       .  S
C990        S992   1.801       .  S
S991        H994   1.409       .  S
S992        H993   1.407       .  S
C997        C998   1.413   1_554  A
C997       C1002   1.416       .  A
C998        C999   1.376   1_455  A
C998       H1007   1.072       .  S
C999       C1000   1.412       .  A
C999       S1003   1.818       .  S
C1000      C1001   1.397   1_556  A
C1001      C1002   1.386   1_655  A
C1001      H1008   1.077       .  S
C1002      S1004   1.803       .  S
S1003      H1006   1.405       .  S
S1004      H1005   1.403       .  S
