geometry optimzed in LAMMPS
_audit_creation_date              2020-11-30 
_audit_creation_method            'lammps2cif' 
_symmetry_space_group_name_H-M    'P1' 
_symmetry_Int_Tables_number       1 
_symmetry_cell_setting            triclinic 
loop_ 
_symmetry_equiv_pos_as_xyz 
  x,y,z 
_cell_length_a                    36.51131959 
_cell_length_b                    36.59436484045507 
_cell_length_c                    42.6329110468801 
_cell_angle_alpha                 89.66943474403891 
_cell_angle_beta                  90.0823616367657 
_cell_angle_gamma                 117.50412421130554 
loop_ 
_atom_site_label 
_atom_site_type_symbol 
_atom_site_fract_x 
_atom_site_fract_y 
_atom_site_fract_z 
_atom_site_charge 
O1          O  0.43677197  0.98935515  0.06404224    -0.81200
O2          O  0.58644408  0.00148189  0.98669549    -0.65800
O3          O  0.50484355  0.02600345  0.02246553    -1.12500
C4          C  0.42111408  0.94205453  0.94058220     1.05700
O5          O  0.57269787  0.01589515  0.93914989    -0.79100
O6          O  0.51089625  0.03695576  0.93038481    -0.66600
Ni7        Ni  0.49588078  0.02281255  0.06685134     1.34900
C8          C  0.48698061  0.04872112  0.94359560     0.84500
O9          O  0.58943064  0.05129522  0.03363708    -0.79600
O10         O  0.55371224  0.05682471  0.07444380    -0.89900
C11         C  0.59467427  0.00675786  0.95763322     0.84000
O12         O  0.50181055  0.97449355  0.07512137    -0.68100
O13         O  0.45517895  0.95554444  0.92553776    -0.87400
C14         C  0.52010081  0.95709239  0.06094274     0.84900
C15         C  0.58774022  0.06505135  0.06077702     1.06400
H16         H  0.49745874  0.94977928  0.98351284     0.38200
O17         O  0.50371017  0.97793520  0.97883222    -1.10000
O18         O  0.46705938  0.03156221  0.96836102    -0.66700
Ni19       Ni  0.46135029  0.98780925  0.99641815     1.26300
O20         O  0.53671985  0.96896617  0.03407947    -0.66900
O21         O  0.41931731  0.94919307  0.96964134    -0.79200
C22         C  0.41264445  0.99415066  0.04488330     0.84300
O23         O  0.42066392  0.99848544  0.01585525    -0.66400
Ni24       Ni  0.51340217  0.98598094  0.93460449     1.27400
Ni25       Ni  0.54681771  0.01425930  0.00595940     1.26100
H26         H  0.51136599  0.05374608  0.01612528     0.38800
O27         O  0.42825423  0.45523480  0.93159666    -0.81200
O28         O  0.58068427  0.57414288  0.00848070    -0.65800
O29         O  0.49636718  0.47770574  0.97099760    -1.12500
C30         C  0.41583366  0.48797994  0.05572552     1.05700
O31         O  0.56517840  0.54185970  0.05365242    -0.79100
O32         O  0.49746029  0.46951220  0.06671813    -0.66600
Ni33       Ni  0.48695304  0.47503156  0.92679426     1.34900
C34         C  0.47686590  0.43633826  0.05168787     0.84500
O35         O  0.58085887  0.52775898  0.96016958    -0.79600
O36         O  0.54478148  0.49371444  0.91797018    -0.89900
C37         C  0.58841349  0.57325495  0.03735603     0.84000
O38         O  0.49396940  0.52957376  0.92032865    -0.68100
O39         O  0.45054474  0.50909344  0.06925285    -0.87400
C40         C  0.51444954  0.56323117  0.93482139     0.84900
C41         C  0.57892137  0.51451979  0.93225918     1.06400
H42         H  0.49079896  0.54606505  0.01128590     0.38200
O43         O  0.49675667  0.52347279  0.01592936    -1.10000
O44         O  0.46127343  0.43605957  0.02500925    -0.66700
Ni45       Ni  0.45362213  0.47493448  0.99870817     1.26300
O46         O  0.53150230  0.56489328  0.96123272    -0.66900
O47         O  0.41256459  0.47379460  0.02785472    -0.79200
C48         C  0.40497453  0.42565542  0.94940514     0.84300
O49         O  0.41224409  0.42729620  0.97862720    -0.66400
Ni50       Ni  0.50737968  0.52509825  0.05987400     1.27400
Ni51       Ni  0.53938504  0.52648900  0.98827696     1.26100
H52         H  0.50250395  0.45533714  0.97605162     0.38800
O53         O  0.55992501  0.00336787  0.56907662    -0.81200
O54         O  0.42225454  0.00295424  0.47995281    -0.65800
O55         O  0.49697715  0.97361467  0.52236541    -1.12500
C56         C  0.59433543  0.06795984  0.44969990     1.05700
O57         O  0.44459635  0.99593376  0.43345814    -0.79100
O58         O  0.50962790  0.97964055  0.42711214    -0.66600
Ni59       Ni  0.49992798  0.97428467  0.56723167     1.34900
C60         C  0.52564633  0.96062083  0.44226547     0.84500
O61         O  0.41171718  0.94824189  0.52516118    -0.79600
O62         O  0.44056298  0.94400608  0.57067309    -0.89900
C63         C  0.41790342  0.99969235  0.45041780     0.84000
O64         O  0.49772900  0.02487163  0.57384044    -0.68100
O65         O  0.56300978  0.06145040  0.43280818    -0.87400
C66         C  0.47838192  0.04120369  0.55943933     0.84900
C67         C  0.40907117  0.93564810  0.55340651     1.06400
H68         H  0.51263915  0.05455268  0.48725870     0.38200
O69         O  0.50623049  0.02716592  0.48027065    -1.10000
O70         O  0.53872265  0.97005160  0.47026123    -0.66700
Ni71       Ni  0.54443485  0.01231331  0.49979957     1.26300
O72         O  0.46299632  0.02957038  0.53224566    -0.66900
O73         O  0.59137657  0.05189461  0.47679222    -0.79200
C74         C  0.58659882  0.00142868  0.55084029     0.84300
O75         O  0.58059894  0.99710623  0.52155369    -0.66400
Ni76       Ni  0.50403419  0.02812927  0.43545477     1.27400
Ni77       Ni  0.45855631  0.98804091  0.50239147     1.26100
H78         H  0.49053368  0.94604974  0.51589949     0.38800
O79         O  0.01211886  0.56015547  0.93934877    -0.81200
O80         O  0.99856765  0.41533219  0.02370616    -0.65800
O81         O  0.97511310  0.49483219  0.98281617    -1.12500
C82         C  0.06444209  0.58480820  0.06086239     1.05700
O83         O  0.98758351  0.43427438  0.07048756    -0.79100
O84         O  0.97109425  0.49923077  0.07772416    -0.66600
Ni85       Ni  0.97887562  0.50115268  0.93828341     1.34900
C86         C  0.95564828  0.51875451  0.06246316     0.84500
O87         O  0.94779396  0.40943842  0.97615887    -0.79600
O88         O  0.94538395  0.44300226  0.93271773    -0.89900
C89         C  0.99334264  0.40926074  0.05304276     0.84000
O90         O  0.02747675  0.49526337  0.93164533    -0.68100
O91         O  0.05387075  0.55195923  0.07701852    -0.87400
C92         C  0.04321765  0.47564042  0.94629156     0.84900
C93         C  0.93513154  0.40976935  0.94820533     1.06400
H94         H  0.05227609  0.50537783  0.02123518     0.38200
O95         O  0.02436621  0.49927713  0.02676636    -1.10000
O96         O  0.96887594  0.53426434  0.03548290    -0.66700
Ni97       Ni  0.01298205  0.54009280  0.00757242     1.26300
O98         O  0.03078711  0.46004112  0.97346809    -0.66900
O99         O  0.05182156  0.58456186  0.03287536    -0.79200
C100        C  0.00634813  0.58514573  0.95666798     0.84300
O101        O  0.00096246  0.57880201  0.98592725    -0.66400
Ni102      Ni  0.02022228  0.49351664  0.07148675     1.27400
Ni103      Ni  0.98660218  0.45395990  0.00179331     1.26100
H104        H  0.94718817  0.48864495  0.98851277     0.38800
O105        O  0.99086285  0.43582453  0.44080537    -0.81200
O106        O  0.00488702  0.58785901  0.51683467    -0.65800
O107        O  0.02726902  0.50513667  0.48089671    -1.12500
C108        C  0.94014718  0.42265226  0.56369445     1.05700
O109        O  0.01764078  0.57288279  0.56431073    -0.79100
O110        O  0.03232622  0.50754021  0.57660347    -0.66600
Ni111      Ni  0.02096568  0.49516196  0.43665358     1.34900
C112        C  0.04754806  0.48709280  0.56260100     0.84500
O113        O  0.05471227  0.58989379  0.47013818    -0.79600
O114        O  0.05121333  0.55311024  0.42728050    -0.89900
C115        C  0.00982931  0.59581785  0.54588169     0.84000
O116        O  0.97010979  0.49740500  0.43129388    -0.68100
O117        O  0.94972733  0.45658453  0.57773435    -0.87400
C118        C  0.95658179  0.51997857  0.44425718     0.84900
C119        C  0.06261795  0.58734537  0.44132827     1.06400
H120        H  0.95118664  0.49817155  0.51895475     0.38200
O121        O  0.97913339  0.50453924  0.52459172    -1.10000
O122        O  0.03447201  0.47048685  0.53603873    -0.66700
Ni123      Ni  0.98987516  0.46227459  0.50808762     1.26300
O124        O  0.97220160  0.53960331  0.46938614    -0.66900
O125        O  0.95204329  0.42057086  0.53593136    -0.79200
C126        C  0.99629081  0.41258328  0.46055051     0.84300
O127        O  0.00127834  0.42157634  0.48939624    -0.66400
Ni128      Ni  0.98397664  0.51413534  0.56890252     1.27400
Ni129      Ni  0.01665048  0.54760947  0.49765964     1.26100
H130        H  0.05531582  0.51145116  0.48617096     0.38800
N131        N  0.01382921  0.27593550  0.41080793    -0.03700
C132        C  0.05200164  0.27830581  0.40829371    -0.01200
C133        C  0.04859285  0.23943997  0.40430140    -0.24000
C134        C  0.00704229  0.21240639  0.40392526    -0.24200
C135        C  0.98614549  0.23540634  0.40812520    -0.01300
H136        H  0.07348596  0.23190563  0.39981864     0.12500
H137        H  0.99345300  0.17980713  0.39889021     0.12600
C138        C  0.57010176  0.85260156  0.36919093     0.80000
N139        N  0.55771956  0.84662975  0.33854480    -0.78400
C140        C  0.57145619  0.82685646  0.31853370     0.82400
N141        N  0.59775940  0.81313695  0.32935885    -0.78300
C142        C  0.61140413  0.81938123  0.35936426     0.82500
N143        N  0.59729015  0.83901342  0.37937015    -0.80000
C144        C  0.74424249  0.15239984  0.37719111     0.80000
N145        N  0.73764157  0.15088471  0.34559328    -0.78400
C146        C  0.76957899  0.16174780  0.32515823     0.82400
N147        N  0.80816370  0.17442005  0.33673377    -0.78300
C148        C  0.81553088  0.17559083  0.36800451     0.82500
N149        N  0.78322716  0.16433626  0.38825876    -0.80000
N150        N  0.72832604  0.72797550  0.39350131    -0.03700
C151        C  0.73602608  0.76718441  0.38690421    -0.01200
C152        C  0.77750686  0.79096713  0.38012468    -0.24000
C153        C  0.79580416  0.76552125  0.38274726    -0.24200
C154        C  0.76488480  0.72694746  0.39080615    -0.01300
H155        H  0.79237959  0.82278005  0.37238458     0.12500
H156        H  0.82751924  0.77354155  0.37709301     0.12600
C157        C  0.84404693  0.55799783  0.36984151     0.80000
N158        N  0.82781865  0.58178270  0.38215846    -0.78400
C159        C  0.80718692  0.59663036  0.36370833     0.82400
N160        N  0.80243030  0.58686004  0.33280215    -0.78300
C161        C  0.81827740  0.56339406  0.31994466     0.82500
N162        N  0.83980733  0.54975917  0.33849636    -0.80000
C163        C  0.15084472  0.73418365  0.36444653     0.80000
N164        N  0.16801456  0.77318763  0.37616540    -0.78400
C165        C  0.18783123  0.80630297  0.35681483     0.82400
N166        N  0.18942046  0.79996796  0.32570065    -0.78300
C167        C  0.17231138  0.76161120  0.31347781     0.82500
N168        N  0.15285035  0.72869191  0.33295569    -0.80000
N169        N  0.27629279  0.00593871  0.39615389    -0.03700
C170        C  0.27340352  0.04090188  0.39052816    -0.01200
C171        C  0.23309289  0.03160031  0.38355060    -0.24000
C172        C  0.21053190  0.98928023  0.38487849    -0.24200
C173        C  0.23787037  0.97429204  0.39275822    -0.01300
H174        H  0.22202360  0.05292269  0.37573175     0.12500
H175        H  0.17858103  0.97133979  0.37802591     0.12600
C176        C  0.28471808  0.44637583  0.37318798     0.80000
N177        N  0.24760369  0.42269743  0.38744487    -0.78400
C178        C  0.21176768  0.40747075  0.37079583     0.82400
N179        N  0.21350746  0.41595874  0.33964638    -0.78300
C180        C  0.24993314  0.43895222  0.32477317     0.82500
N181        N  0.28548890  0.45369664  0.34171905    -0.80000
C182        C  0.42984968  0.27628903  0.35650531     0.80000
N183        N  0.43303876  0.28000786  0.32463127    -0.78400
C184        C  0.41632346  0.24597309  0.30615143     0.82400
N185        N  0.39614768  0.20832203  0.31997867    -0.78300
C186        C  0.39183732  0.20397245  0.35156948     0.82500
N187        N  0.40906899  0.23815741  0.36966463    -0.80000
C188        C  0.55660509  0.84226218  0.13368641     0.80000
N189        N  0.54990150  0.83827105  0.16520113    -0.78400
C190        C  0.56211563  0.81507068  0.18308626     0.82400
N191        N  0.58145037  0.79552867  0.16891846    -0.78300
C192        C  0.58887008  0.79909589  0.13750396     0.82500
N193        N  0.57690886  0.82307824  0.12005904    -0.80000
C194        C  0.73417897  0.15002563  0.13855331     0.80000
N195        N  0.72984237  0.14747294  0.17047034    -0.78400
C196        C  0.76371747  0.16323882  0.18931208     0.82400
N197        N  0.80164999  0.18290732  0.17607230    -0.78300
C198        C  0.80667261  0.18506017  0.14456654     0.82500
N199        N  0.77284298  0.16774163  0.12580054    -0.80000
N200        N  0.71293313  0.71317821  0.10179390    -0.03700
C201        C  0.71226659  0.74959995  0.10650251    -0.01200
C202        C  0.74928295  0.77740209  0.11975934    -0.24000
C203        C  0.77324660  0.75757503  0.12296000    -0.24200
C204        C  0.75022044  0.71805619  0.11174704    -0.01300
H205        H  0.75676554  0.80765546  0.12870524     0.12500
H206        H  0.80296240  0.76964796  0.13446695     0.12600
C207        C  0.84121910  0.55680819  0.13375956     0.80000
N208        N  0.82471106  0.58104017  0.12220358    -0.78400
C209        C  0.80267993  0.59355259  0.14132359     0.82400
N210        N  0.79750872  0.58139215  0.17181349    -0.78300
C211        C  0.81549744  0.55953828  0.18417638     0.82500
N212        N  0.83732156  0.54727403  0.16497722    -0.80000
C213        C  0.15652782  0.73906344  0.12782926     0.80000
N214        N  0.17134466  0.77792501  0.11548581    -0.78400
C215        C  0.19032424  0.81156784  0.13440304     0.82400
N216        N  0.19423185  0.80561688  0.16544904    -0.78300
C217        C  0.17941191  0.76745873  0.17811033     0.82500
N218        N  0.16017155  0.73434049  0.15921701    -0.80000
N219        N  0.27209087  0.01026487  0.08816487    -0.03700
C220        C  0.27077859  0.04661776  0.09114138    -0.01200
C221        C  0.23159479  0.03890562  0.10063952    -0.24000
C222        C  0.20880244  0.99678833  0.10420341    -0.24200
C223        C  0.23452297  0.97989035  0.09651815    -0.01300
H224        H  0.22168358  0.06151115  0.10710897     0.12500
H225        H  0.17792994  0.98057517  0.11380769     0.12600
C226        C  0.27303929  0.44367637  0.13714814     0.80000
N227        N  0.23431371  0.41848610  0.12626686    -0.78400
C228        C  0.20142410  0.40331700  0.14607592     0.82400
N229        N  0.20729269  0.41474664  0.17656982    -0.78300
C230        C  0.24550326  0.43859444  0.18828957     0.82500
N231        N  0.27844448  0.45279143  0.16841412    -0.80000
C232        C  0.42988269  0.28242035  0.12041201     0.80000
N233        N  0.40996880  0.24513897  0.10572679    -0.78400
C234        C  0.39511544  0.20942477  0.12264375     0.82400
N235        N  0.39863686  0.21141476  0.15426486    -0.78300
C236        C  0.41592482  0.24790952  0.16948207     0.82500
N237        N  0.43209980  0.28333795  0.15235999    -0.80000
N238        N  0.00660026  0.27172149  0.10666518    -0.03700
C239        C  0.04219748  0.26950686  0.11184065    -0.01200
C240        C  0.03294866  0.22909658  0.11875293    -0.24000
C241        C  0.99060832  0.20618171  0.11789395    -0.24200
C242        C  0.97516692  0.23315860  0.11030036    -0.01300
H243        H  0.05447761  0.21806592  0.12616288     0.12500
H244        H  0.97310279  0.17423671  0.12488550     0.12600
O245        O  0.46382147  0.44281871  0.55783832    -0.81200
O246        O  0.58162542  0.58768349  0.47741566    -0.65800
O247        O  0.48306244  0.50757147  0.51574828    -1.12500
C248        C  0.48471090  0.42218468  0.43421227     1.05700
O249        O  0.55300786  0.57385608  0.43037783    -0.79100
O250        O  0.47262101  0.51322453  0.42574943    -0.66600
Ni251      Ni  0.47874524  0.50038605  0.56006805     1.34900
C252        C  0.43936573  0.48827001  0.43942984     0.84500
O253        O  0.53653558  0.59135822  0.52607682    -0.79600
O254        O  0.49320096  0.55732846  0.56556671    -0.89900
C255        C  0.58308778  0.59581131  0.44832297     0.84000
O256        O  0.53424713  0.51245557  0.56938209    -0.68100
O257        O  0.50040282  0.45590562  0.41855633    -0.87400
C258        C  0.56789999  0.52782903  0.55407593     0.84900
C259        C  0.51889331  0.59061600  0.55217680     1.06400
H260        H  0.55065064  0.49911450  0.47447710     0.38200
O261        O  0.52789612  0.50520335  0.47087830    -1.10000
O262        O  0.43966738  0.46782509  0.46351210    -0.66700
Ni263      Ni  0.47989684  0.46318972  0.49037713     1.26300
O264        O  0.56986967  0.53845461  0.52535489    -0.66900
O265        O  0.47868119  0.42071491  0.46376150    -0.79200
C266        C  0.43337620  0.41765875  0.54186954     0.84300
O267        O  0.43299695  0.42280915  0.51245227    -0.66400
Ni268      Ni  0.52572489  0.51429604  0.42682811     1.27400
Ni269      Ni  0.53294865  0.54865313  0.49808950     1.26100
H270        H  0.46129423  0.51411449  0.50952290     0.38800
C271        C  0.58556207  0.73831789  0.62755070     0.80000
N272        N  0.58108966  0.73232983  0.65923571    -0.78400
C273        C  0.60078911  0.76442031  0.67919714     0.82400
N274        N  0.62340697  0.80279766  0.66715193    -0.78300
C275        C  0.62829247  0.80926613  0.63574354     0.82500
N276        N  0.60944112  0.77688775  0.61603512    -0.80000
C277        C  0.71787492  0.57477810  0.62790709     0.80000
N278        N  0.75524479  0.59526318  0.61332791    -0.78400
C279        C  0.79086567  0.61002096  0.63015065     0.82400
N280        N  0.78883917  0.60571985  0.66177148    -0.78300
C281        C  0.75213002  0.58567842  0.67682186     0.82500
N282        N  0.71671966  0.57000036  0.65973816    -0.80000
N283        N  0.73795770  0.00872989  0.59707383    -0.03700
C284        C  0.74387040  0.97503955  0.60035308    -0.01200
C285        C  0.78509891  0.98665667  0.60561561    -0.24000
C286        C  0.80496467  0.02909732  0.60619970    -0.24200
C287        C  0.77522005  0.04187792  0.60097512    -0.01300
H288        H  0.79852125  0.96659343  0.61145353     0.12500
H289        H  0.83676350  0.04833673  0.61288563     0.12600
C290        C  0.84928978  0.27766844  0.64094973     0.80000
N291        N  0.84600763  0.28061221  0.67263411    -0.78400
C292        C  0.82687825  0.24590894  0.69053243     0.82400
N293        N  0.81102350  0.20877146  0.67623288    -0.78300
C294        C  0.81500954  0.20509292  0.64497141     0.82500
N295        N  0.83449959  0.23988754  0.62748092    -0.80000
C296        C  0.15647255  0.43842685  0.63152008     0.80000
N297        N  0.15919357  0.44477146  0.66309339    -0.78400
C298        C  0.18150081  0.43193928  0.68150657     0.82400
N299        N  0.20093587  0.41205860  0.66797639    -0.78300
C300        C  0.19888053  0.40546703  0.63650687     0.82500
N301        N  0.17600288  0.41815532  0.61845481    -0.80000
N302        N  0.29079544  0.28750619  0.60057175    -0.03700
C303        C  0.28682401  0.24927876  0.60575002    -0.01200
C304        C  0.24637057  0.22235858  0.61318105    -0.24000
C305        C  0.22476538  0.24486720  0.61229517    -0.24200
C306        C  0.25273830  0.28496857  0.60444303    -0.01300
H307        H  0.23440937  0.19049589  0.62040400     0.12500
H308        H  0.19268432  0.23368619  0.61869353     0.12600
C309        C  0.43609564  0.14869737  0.63527390     0.80000
N310        N  0.41624882  0.16917282  0.62269934    -0.78400
C311        C  0.40364522  0.19138040  0.64136205     0.82400
N312        N  0.41016908  0.19195666  0.67270093    -0.78300
C313        C  0.42864490  0.17094247  0.68583393     0.82500
N314        N  0.44150884  0.14925901  0.66700148    -0.80000
C315        C  0.25990409  0.85950689  0.62752652     0.80000
N316        N  0.22074761  0.84326525  0.61590849    -0.78400
C317        C  0.18789818  0.83008510  0.63578233     0.82400
N318        N  0.19485366  0.83563180  0.66706127    -0.78300
C319        C  0.23355658  0.85237040  0.67909419     0.82500
N320        N  0.26611998  0.86403957  0.65913748    -0.80000
N321        N  0.98855650  0.73267087  0.59127229    -0.03700
C322        C  0.95206578  0.73379910  0.59409090    -0.01200
C323        C  0.95948306  0.77359206  0.60094844    -0.24000
C324        C  0.00172519  0.79728695  0.60255252    -0.24200
C325        C  0.01877501  0.77133528  0.59649945    -0.01300
H326        H  0.93674304  0.78371992  0.60660958     0.12500
H327        H  0.01805544  0.82918252  0.60968028     0.12600
N328        N  0.00214080  0.72905774  0.90661225    -0.03700
C329        C  0.96698069  0.73183618  0.90147812    -0.01200
C330        C  0.97612774  0.77257299  0.89688230    -0.24000
C331        C  0.01844149  0.79541127  0.89942802    -0.24200
C332        C  0.03371964  0.76776380  0.90519532    -0.01300
H333        H  0.95484187  0.78404925  0.88980505     0.12500
H334        H  0.03630780  0.82800161  0.89449135     0.12600
C335        C  0.43633646  0.15381019  0.87182147     0.80000
N336        N  0.41340221  0.17075879  0.88471763    -0.78400
C337        C  0.39841361  0.19157684  0.86637385     0.82400
N338        N  0.40571966  0.19432808  0.83492310    -0.78300
C339        C  0.42735949  0.17657547  0.82163755     0.82500
N340        N  0.44196880  0.15603299  0.84019724    -0.80000
C341        C  0.27244113  0.86411774  0.86453108     0.80000
N342        N  0.23475302  0.84452416  0.87863049    -0.78400
C343        C  0.19973221  0.82836817  0.86121522     0.82400
N344        N  0.20247415  0.83378358  0.82969385    -0.78300
C345        C  0.23956067  0.85415162  0.81515696     0.82500
N346        N  0.27463056  0.86871445  0.83267085    -0.80000
C347        C  0.56718177  0.71583186  0.86371052     0.80000
N348        N  0.58805899  0.75268816  0.87873757    -0.78400
C349        C  0.60815073  0.78848256  0.86219112     0.82400
N350        N  0.60734654  0.78711912  0.83040191    -0.78300
C351        C  0.58717332  0.75097887  0.81490764     0.82500
N352        N  0.56706951  0.71551810  0.83171755    -0.80000
C353        C  0.73338998  0.57208616  0.86307192     0.80000
N354        N  0.73001766  0.56853850  0.83128447    -0.78400
C355        C  0.76394620  0.58700283  0.81270845     0.82400
N356        N  0.80161888  0.60731995  0.82628223    -0.78300
C357        C  0.80601693  0.61129529  0.85792538     0.82500
N358        N  0.77152564  0.59367269  0.87621936    -0.80000
N359        N  0.72907377  0.98594374  0.90582378    -0.03700
C360        C  0.72925633  0.94908933  0.90287890    -0.01200
C361        C  0.76928028  0.95502001  0.89997754    -0.24000
C362        C  0.79446907  0.99692687  0.90102040    -0.24200
C363        C  0.76917608  0.01543159  0.90498718    -0.01300
H364        H  0.77890707  0.93167590  0.89538054     0.12500
H365        H  0.82747803  0.01243037  0.89702863     0.12600
C366        C  0.84872319  0.25736774  0.87720107     0.80000
N367        N  0.83711610  0.21849284  0.88845782    -0.78400
C368        C  0.82175029  0.18568351  0.86858576     0.82400
N369        N  0.81656512  0.19198458  0.83786587    -0.78300
C370        C  0.82746110  0.23008582  0.82623309     0.82500
N371        N  0.84409112  0.26263709  0.84598398    -0.80000
C372        C  0.14971834  0.43408466  0.86822213     0.80000
N373        N  0.16539564  0.40910042  0.87938568    -0.78400
C374        C  0.18589753  0.39521627  0.86006163     0.82400
N375        N  0.19060854  0.40676465  0.82944898    -0.78300
C376        C  0.17403503  0.43016888  0.81746153     0.82500
N377        N  0.15349632  0.44377451  0.83697120    -0.80000
N378        N  0.27332639  0.27597142  0.90110764    -0.03700
C379        C  0.23449779  0.26980654  0.89489067    -0.01200
C380        C  0.20885447  0.22838237  0.89009034    -0.24000
C381        C  0.23294142  0.20858804  0.89329153    -0.24200
C382        C  0.27265977  0.23855113  0.89987251    -0.01300
H383        H  0.17682626  0.21445998  0.88291921     0.12500
H384        H  0.22317757  0.17633793  0.88877396     0.12600
C385        C  0.20803296  0.34200730  0.84735966    -0.26600
C386        C  0.19951190  0.36427860  0.87057795    -0.14700
C387        C  0.20376718  0.35587366  0.90253890     0.36000
C388        C  0.21565560  0.32516130  0.91022953    -0.26000
C389        C  0.22316567  0.30274838  0.88672379    -0.15300
C390        C  0.21943863  0.31158290  0.85503047     0.37100
N391        N  0.22732509  0.29018515  0.82998934    -0.89500
H392        H  0.20516072  0.34758315  0.82271619     0.18200
H393        H  0.21885729  0.31849985  0.93458100     0.18200
N394        N  0.19623360  0.37839902  0.92702244    -0.88600
H395        H  0.20644656  0.25888397  0.83170149     0.35500
H396        H  0.25726419  0.29369953  0.83250943     0.40600
H397        H  0.21889810  0.40909801  0.92524116     0.40300
H398        H  0.19991004  0.36786241  0.94906730     0.35100
C399        C  0.80005851  0.07356847  0.86781345    -0.26600
C400        C  0.78351459  0.05981270  0.89775935    -0.14700
C401        C  0.78305108  0.08872225  0.91945967     0.36000
C402        C  0.79664293  0.12992446  0.91000778    -0.26000
C403        C  0.81136238  0.14314889  0.87938527    -0.15300
C404        C  0.81444582  0.11471016  0.85850202     0.37100
N405        N  0.83269911  0.12772146  0.82794477    -0.89500
H406        H  0.80163794  0.05180404  0.85141404     0.18200
H407        H  0.79501794  0.15150982  0.92653728     0.18200
N408        N  0.77039479  0.07766759  0.95135413    -0.88600
H409        H  0.83226550  0.10300524  0.81547340     0.35500
H410        H  0.86376883  0.14879063  0.83119226     0.40600
H411        H  0.78780068  0.06439099  0.96104657     0.40300
H412        H  0.73935337  0.05596260  0.95182743     0.35100
C413        C  0.68756022  0.87355882  0.91359004    -0.26600
C414        C  0.69246115  0.90879564  0.89696076    -0.14700
C415        C  0.66600704  0.90409216  0.87156544     0.36000
C416        C  0.63679710  0.86457355  0.86226167    -0.26000
C417        C  0.63335271  0.82899408  0.87759833    -0.15300
C418        C  0.65815482  0.83388287  0.90444581     0.37100
N419        N  0.65593386  0.79935535  0.92187023    -0.89500
H420        H  0.70787061  0.87681008  0.93310994     0.18200
H421        H  0.61795623  0.86169884  0.84183458     0.18200
N422        N  0.67060537  0.93913955  0.85364746    -0.88600
H423        H  0.66179626  0.78031836  0.90670181     0.35500
H424        H  0.62614062  0.78299204  0.93104586     0.40600
H425        H  0.64227604  0.93978850  0.85380216     0.40300
H426        H  0.67732951  0.93516910  0.83046943     0.35100
C427        C  0.34145784  0.25582576  0.87663560    -0.26600
C428        C  0.30957405  0.23126670  0.89726465    -0.14700
C429        C  0.31028566  0.19640178  0.91114231     0.36000
C430        C  0.34106274  0.18520333  0.90228554    -0.26000
C431        C  0.37097125  0.20796138  0.87956288    -0.15300
C432        C  0.37187413  0.24452032  0.86769115     0.37100
N433        N  0.40342032  0.27020681  0.84614857    -0.89500
H434        H  0.34144068  0.28266876  0.86579700     0.18200
H435        H  0.34036702  0.15744911  0.91196006     0.18200
N436        N  0.27903554  0.17188214  0.93352272    -0.88600
H437        H  0.41949152  0.29941086  0.85613273     0.35500
H438        H  0.38899754  0.27326796  0.82581342     0.40600
H439        H  0.28242742  0.19040580  0.95300196     0.40300
H440        H  0.28370237  0.14727314  0.94147836     0.35100
C441        C  0.08618300  0.75710151  0.87556287    -0.26600
C442        C  0.07739249  0.77781940  0.89961024    -0.14700
C443        C  0.11003742  0.81195205  0.91384960     0.36000
C444        C  0.15050384  0.82657668  0.90234254    -0.26000
C445        C  0.15860241  0.80802878  0.87630435    -0.15300
C446        C  0.12615908  0.77184462  0.86368378     0.37100
N447        N  0.13267251  0.74952045  0.83863885    -0.89500
H448        H  0.06136357  0.73105112  0.86419597     0.18200
H449        H  0.17516646  0.85387512  0.91264357     0.18200
N450        N  0.10196684  0.83237121  0.93944736    -0.88600
H451        H  0.15659811  0.74280152  0.84496329     0.35500
H452        H  0.14102065  0.76766532  0.81834683     0.40600
H453        H  0.11214528  0.86317630  0.93305640     0.40300
H454        H  0.11951879  0.83167712  0.95862883     0.35100
C455        C  0.89433170  0.67958183  0.91323310    -0.26600
C456        C  0.92730586  0.69700410  0.89205187    -0.14700
C457        C  0.92122944  0.68395701  0.86072987     0.36000
C458        C  0.88206864  0.65475148  0.85069780    -0.26000
C459        C  0.84794530  0.63833830  0.87128109    -0.15300
C460        C  0.85480950  0.65022249  0.90323996     0.37100
N461        N  0.82188065  0.63342760  0.92560425    -0.89500
H462        H  0.89900093  0.68956580  0.93744666     0.18200
H463        H  0.87840682  0.64587696  0.82626350     0.18200
N464        N  0.95460354  0.70152130  0.83869233    -0.88600
H465        H  0.81857016  0.65780032  0.93553237     0.35500
H466        H  0.83039940  0.61912283  0.94342687     0.40600
H467        H  0.94595402  0.71547209  0.82068789     0.40300
H468        H  0.95876686  0.67756704  0.82890828     0.35100
C469        C  0.20795460  0.86099857  0.73116409    -0.26600
C470        C  0.23894578  0.85768585  0.71376098    -0.14700
C471        C  0.27243711  0.85718560  0.73004967     0.36000
C472        C  0.27326823  0.85804458  0.76310998    -0.26000
C473        C  0.24099897  0.85903614  0.78040875    -0.15300
C474        C  0.20869980  0.86198142  0.76408187     0.37100
N475        N  0.17658783  0.86585961  0.78095763    -0.89500
H476        H  0.18258933  0.86248874  0.71901224     0.18200
H477        H  0.29837855  0.85605986  0.77527042     0.18200
N478        N  0.30473685  0.85391213  0.71334380    -0.88600
H479        H  0.15497163  0.86722410  0.76551572     0.35500
H480        H  0.19025250  0.89400138  0.79275867     0.40600
H481        H  0.30575427  0.82718921  0.72097004     0.40300
H482        H  0.33274371  0.87918475  0.71925610     0.35100
C483        C  0.13597141  0.82108391  0.59384816    -0.26600
C484        C  0.14466705  0.81100755  0.62393622    -0.14700
C485        C  0.11136590  0.78434779  0.64323113     0.36000
C486        C  0.07067083  0.77059069  0.63308304    -0.26000
C487        C  0.06212457  0.78212265  0.60376351    -0.15300
C488        C  0.09504147  0.80710219  0.58374425     0.37100
N489        N  0.08763037  0.81910230  0.55332514    -0.89500
H490        H  0.16096507  0.84117881  0.57857713     0.18200
H491        H  0.04550447  0.75177790  0.64871896     0.18200
N492        N  0.11855665  0.77109756  0.67326955    -0.88600
H493        H  0.07064248  0.83533899  0.55605008     0.35500
H494        H  0.06967333  0.79235988  0.54061565     0.40600
H495        H  0.10472040  0.73890440  0.67340537     0.40300
H496        H  0.10400030  0.78030800  0.69031539     0.35100
C497        C  0.44271467  0.20951092  0.73569381    -0.26600
C498        C  0.43396502  0.17242516  0.72049700    -0.14700
C499        C  0.42660588  0.13746115  0.73904945     0.36000
C500        C  0.42580466  0.13988507  0.77192908    -0.26000
C501        C  0.43197464  0.17644391  0.78695729    -0.15300
C502        C  0.44204028  0.21196188  0.76837914     0.37100
N503        N  0.45237003  0.25120418  0.78192491    -0.89500
H504        H  0.44940333  0.23690778  0.72195500     0.18200
H505        H  0.41880885  0.11250931  0.78578020     0.18200
N506        N  0.41801116  0.09870635  0.72531803    -0.88600
H507        H  0.47596469  0.25808440  0.79830871     0.35500
H508        H  0.42632501  0.24941563  0.79322818     0.40600
H509        H  0.44362636  0.10252119  0.71210488     0.40300
H510        H  0.39253920  0.08968544  0.71044895     0.35100
C511        C  0.34698764  0.25624711  0.63670455    -0.26600
C512        C  0.32156014  0.23945218  0.61061146    -0.14700
C513        C  0.32665118  0.21009948  0.59225532     0.36000
C514        C  0.35540203  0.19651286  0.60136427    -0.26000
C515        C  0.37909350  0.21142841  0.62880092    -0.15300
C516        C  0.37591519  0.24305989  0.64570998     0.37100
N517        N  0.40158534  0.26163425  0.67241034    -0.89500
H518        H  0.34305803  0.27839664  0.65119320     0.18200
H519        H  0.35771277  0.17276805  0.58772995     0.18200
N520        N  0.30266286  0.19329208  0.56453330    -0.88000
H521        H  0.38248556  0.25714829  0.69183712     0.35500
H522        H  0.41824826  0.29332323  0.66820179     0.40600
H523        H  0.30754729  0.21769909  0.54937775     0.40300
H524        H  0.27144455  0.17841323  0.57073215     0.35100
C525        C  0.14612695  0.43378661  0.73142555    -0.26600
C526        C  0.18160428  0.43644989  0.71632998    -0.14700
C527        C  0.21602870  0.44255088  0.73507966     0.36000
C528        C  0.21335653  0.44325729  0.76777767    -0.26000
C529        C  0.17703365  0.43776391  0.78295212    -0.15300
C530        C  0.14338835  0.43414485  0.76433109     0.37100
N531        N  0.10539043  0.42870072  0.77800817    -0.89500
H532        H  0.11953918  0.42961573  0.71762481     0.18200
H533        H  0.23972746  0.44673716  0.78158143     0.18200
N534        N  0.25429636  0.44820916  0.72181707    -0.88600
H535        H  0.11140704  0.45449464  0.79164570     0.35500
H536        H  0.09388372  0.40258684  0.79246903     0.40600
H537        H  0.26406063  0.47192254  0.70514538     0.40300
H538        H  0.24964359  0.42084209  0.71111966     0.35100
C539        C  0.26869589  0.35496038  0.62421631    -0.26600
C540        C  0.24304172  0.32033765  0.60649057    -0.14700
C541        C  0.20549697  0.31733494  0.59479536     0.36000
C542        C  0.19300009  0.34715367  0.60320302    -0.26000
C543        C  0.21726995  0.38010097  0.62301609    -0.15300
C544        C  0.25673142  0.38510404  0.63217521     0.37100
N545        N  0.28589930  0.42057013  0.64900045    -0.89500
H546        H  0.29758019  0.35786540  0.63331136     0.18200
H547        H  0.16315280  0.34342789  0.59556912     0.18200
N548        N  0.17957168  0.28326871  0.57522470    -0.88600
H549        H  0.28948678  0.41087993  0.67137970     0.35500
H550        H  0.27589843  0.44289026  0.65140051     0.40600
H551        H  0.19581758  0.28561205  0.55451208     0.40300
H552        H  0.15292972  0.28531370  0.56879420     0.35100
C553        C  0.85357319  0.27277651  0.77730152    -0.26600
C554        C  0.82445139  0.23621262  0.79187064    -0.14700
C555        C  0.79370920  0.20569258  0.77294371     0.36000
C556        C  0.79411153  0.21140687  0.74052054    -0.26000
C557        C  0.82487726  0.24651660  0.72554982    -0.15300
C558        C  0.85433724  0.27816211  0.74455173     0.37100
N559        N  0.88632135  0.31530890  0.73147086    -0.89500
H560        H  0.87709643  0.29679590  0.79131198     0.18200
H561        H  0.77047268  0.18712898  0.72675373     0.18200
N562        N  0.76122693  0.16856339  0.78572269    -0.88600
H563        H  0.87266895  0.33070284  0.71926264     0.35500
H564        H  0.90380253  0.30766511  0.71593550     0.40600
H565        H  0.74642027  0.17619223  0.80358258     0.40300
H566        H  0.77368560  0.15011696  0.79471931     0.35100
C567        C  0.79057595  0.11446535  0.58915114    -0.26600
C568        C  0.78096644  0.08261375  0.61097471    -0.14700
C569        C  0.78068668  0.09046137  0.64316554     0.36000
C570        C  0.79066792  0.13027150  0.65308730    -0.26000
C571        C  0.80195877  0.16319729  0.63166913    -0.15300
C572        C  0.80130552  0.15470839  0.59905149     0.37100
N573        N  0.81155676  0.18586001  0.57539776    -0.89500
H574        H  0.79099063  0.10829384  0.56435526     0.18200
H575        H  0.79068007  0.13551592  0.67805051     0.18200
N576        N  0.77180998  0.05813265  0.66581432    -0.88600
H577        H  0.84236983  0.20785557  0.57813264     0.35500
H578        H  0.79232000  0.19972070  0.57798610     0.40600
H579        H  0.74103988  0.03625398  0.66289764     0.40300
H580        H  0.77427066  0.06925075  0.68866287     0.35100
C581        C  0.78019763  0.62128089  0.72706667    -0.26600
C582        C  0.75168158  0.58561747  0.71169033    -0.14700
C583        C  0.72575712  0.55078841  0.72996185     0.36000
C584        C  0.73000392  0.55203183  0.76278056    -0.26000
C585        C  0.75971981  0.58733752  0.77800804    -0.15300
C586        C  0.78437613  0.62268407  0.75967010     0.37100
N587        N  0.81308088  0.66099166  0.77333791    -0.89500
H588        H  0.79972033  0.64857804  0.71353764     0.18200
H589        H  0.71050746  0.52485515  0.77642277     0.18200
N590        N  0.69600105  0.51334236  0.71589973    -0.88600
H591        H  0.83709465  0.65742657  0.78380980     0.35500
H592        H  0.79773119  0.66942177  0.79026476     0.40600
H593        H  0.71119080  0.50352352  0.69984674     0.40300
H594        H  0.67437800  0.51932982  0.70388550     0.35100
C595        C  0.83553967  0.66800376  0.59482767    -0.26600
C596        C  0.83143672  0.63620467  0.61536364    -0.14700
C597        C  0.86721765  0.63298948  0.62419396     0.36000
C598        C  0.90614579  0.66350860  0.61497520    -0.26000
C599        C  0.91061296  0.69734036  0.59672783    -0.15300
C600        C  0.87482013  0.69859602  0.58535401     0.37100
N601        N  0.87858839  0.73168527  0.56509552    -0.89500
H602        H  0.80822209  0.67030793  0.58756610     0.18200
H603        H  0.93300460  0.66204513  0.62420010     0.18200
N604        N  0.86511070  0.59923577  0.64269175    -0.88600
H605        H  0.84944155  0.72829936  0.55899568     0.35500
H606        H  0.89256166  0.72944366  0.54430832     0.40600
H607        H  0.84493108  0.57172394  0.63175149     0.40300
H608        H  0.85380274  0.60013696  0.66498282     0.35100
C609        C  0.56258322  0.72724954  0.72776619    -0.26600
C610        C  0.59856333  0.75810002  0.71382551    -0.14700
C611        C  0.63176257  0.78388729  0.73332064     0.36000
C612        C  0.62713972  0.78028411  0.76602997    -0.26000
C613        C  0.59054268  0.75084577  0.78009961    -0.15300
C614        C  0.55814790  0.72340716  0.76071236     0.37100
N615        N  0.52041212  0.69274858  0.77438151    -0.89500
H616        H  0.53721983  0.70709170  0.71294297     0.18200
H617        H  0.65256321  0.80067146  0.78071543     0.18200
N618        N  0.67030848  0.81350953  0.71988723    -0.88600
H619        H  0.49989743  0.67489249  0.75693535     0.35500
H620        H  0.50633479  0.70812694  0.78589999     0.40600
H621        H  0.68300726  0.79715369  0.70793062     0.40300
H622        H  0.69139623  0.83018730  0.73741459     0.35100
C623        C  0.65591057  0.88480119  0.64029694    -0.26600
C624        C  0.65487034  0.85135518  0.62371149    -0.14700
C625        C  0.68139290  0.85901970  0.59770611     0.36000
C626        C  0.70918878  0.89977671  0.58944533    -0.26000
C627        C  0.71063776  0.93299370  0.60654203    -0.15300
C628        C  0.68352748  0.92535146  0.63202856     0.37100
N629        N  0.68550511  0.95855545  0.65074607    -0.89500
H630        H  0.63585123  0.87946307  0.66037688     0.18200
H631        H  0.73046501  0.90547173  0.57013940     0.18200
N632        N  0.68177244  0.82564839  0.58062532    -0.88600
H633        H  0.69241240  0.95396309  0.67378662     0.35500
H634        H  0.65626925  0.95720641  0.65075216     0.40600
H635        H  0.71150141  0.82830444  0.58193048     0.40300
H636        H  0.67556074  0.82881953  0.55709888     0.35100
C637        C  0.56484595  0.66621009  0.55801689    -0.26600
C638        C  0.53098861  0.63015962  0.56901868    -0.14700
C639        C  0.51270435  0.63170751  0.59794454     0.36000
C640        C  0.53042086  0.66757081  0.61609321    -0.26000
C641        C  0.56580591  0.70265410  0.60599142    -0.15300
C642        C  0.58227916  0.70222030  0.57608110     0.37100
N643        N  0.61784370  0.73752715  0.56437643    -0.89500
H644        H  0.57927542  0.66613939  0.53583874     0.18200
H645        H  0.51654353  0.66765564  0.63853170     0.18200
N646        N  0.47649117  0.59684009  0.60943586    -0.88600
H647        H  0.60999724  0.74615474  0.54297866     0.35500
H648        H  0.64107889  0.72903677  0.56014516     0.40600
H649        H  0.45341838  0.60581786  0.61268927     0.40300
H650        H  0.48341108  0.58846498  0.63129133     0.35100
C651        C  0.68019357  0.55683536  0.57635298    -0.26600
C652        C  0.67885980  0.55989289  0.60924048    -0.14700
C653        C  0.64036742  0.54967726  0.62344579     0.36000
C654        C  0.60501631  0.53789539  0.60486549    -0.26000
C655        C  0.60639255  0.53613354  0.57190176    -0.15300
C656        C  0.64478570  0.54519118  0.55767845     0.37100
N657        N  0.64899053  0.54239194  0.52451817    -0.89500
H658        H  0.70914627  0.56383746  0.56484158     0.18200
H659        H  0.57635200  0.53142917  0.61662485     0.18200
N660        N  0.63683899  0.55236003  0.65672052    -0.88600
H661        H  0.64245310  0.56410467  0.51329574     0.35500
H662        H  0.62780436  0.51286878  0.51724768     0.40600
H663        H  0.61538093  0.52340076  0.66507663     0.40300
H664        H  0.62530084  0.57319348  0.66118186     0.35100
C665        C  0.36402793  0.35609114  0.53930732    -0.26600
C666        C  0.39785993  0.38287724  0.55756698    -0.14700
C667        C  0.39572485  0.37741614  0.59057362     0.36000
C668        C  0.35987688  0.34655708  0.60444271    -0.26000
C669        C  0.32610899  0.32068737  0.58613736    -0.15300
C670        C  0.32830769  0.32504210  0.55329547     0.37100
N671        N  0.29442492  0.29724235  0.53431728    -0.89500
H672        H  0.36515275  0.35955406  0.51402259     0.18200
H673        H  0.35834897  0.34288090  0.62968261     0.18200
N674        N  0.42966628  0.40303670  0.61025480    -0.88600
H675        H  0.30130041  0.30367819  0.51049599     0.35500
H676        H  0.26927201  0.30267710  0.53894753     0.40600
H677        H  0.43879973  0.38406249  0.62291556     0.40300
H678        H  0.41925685  0.41774989  0.62624924     0.35100
C679        C  0.10057423  0.30454202  0.14815827    -0.26600
C680        C  0.08304473  0.30492506  0.11897632    -0.14700
C681        C  0.10502819  0.33781798  0.09789106     0.36000
C682        C  0.14393171  0.36987129  0.10685466    -0.26000
C683        C  0.16099299  0.36938674  0.13638304    -0.15300
C684        C  0.13905189  0.33596440  0.15691593     0.37100
N685        N  0.15625606  0.33305881  0.18650238    -0.89500
H686        H  0.08416915  0.27943708  0.16452381     0.18200
H687        H  0.16083204  0.39532969  0.09090707     0.18200
N688        N  0.08826977  0.33829018  0.06748310    -0.88600
H689        H  0.15854701  0.30561469  0.18692173     0.35500
H690        H  0.13580230  0.33150660  0.20421712     0.40600
H691        H  0.08638365  0.31292075  0.05508167     0.40300
H692        H  0.10821453  0.36459200  0.05488086     0.35100
C693        C  0.34216520  0.09382256  0.10958358    -0.26600
C694        C  0.30726286  0.08837281  0.09233805    -0.14700
C695        C  0.30515363  0.12362517  0.08082310     0.36000
C696        C  0.33614388  0.16332545  0.08864438    -0.26000
C697        C  0.36912415  0.16854481  0.10826318    -0.15300
C698        C  0.37284247  0.13317537  0.11764863     0.37100
N699        N  0.40719400  0.13612298  0.13576430    -0.89500
H700        H  0.34436374  0.06739068  0.11897652     0.18200
H701        H  0.33289846  0.18998907  0.08102797     0.18200
N702        N  0.27093767  0.11919932  0.06188701    -0.88600
H703        H  0.40663697  0.14795038  0.15787050     0.35500
H704        H  0.43445025  0.15614190  0.12422160     0.40600
H705        H  0.28254428  0.13421393  0.04049990     0.40300
H706        H  0.25627328  0.13419225  0.07314832     0.35100
C707        C  0.21126967  0.88538906  0.14558850    -0.26600
C708        C  0.20354263  0.85469242  0.12300289    -0.14700
C709        C  0.20865537  0.86636079  0.09093520     0.36000
C710        C  0.21973392  0.90756022  0.08230688    -0.26000
C711        C  0.22567683  0.93725040  0.10518732    -0.15300
C712        C  0.22218397  0.92605878  0.13699529     0.37100
N713        N  0.22998242  0.95623988  0.16081439    -0.89500
H714        H  0.20825825  0.87795517  0.17038233     0.18200
H715        H  0.22309324  0.91620547  0.05772519     0.18200
N716        N  0.20308376  0.83685187  0.06710641    -0.88600
H717        H  0.25395163  0.95756252  0.17499339     0.35500
H718        H  0.20347124  0.94629435  0.17468880     0.40600
H719        H  0.23058038  0.84758719  0.05433827     0.40300
H720        H  0.17998923  0.83541492  0.05187984     0.35100
C721        C  0.76875209  0.66304091  0.09361878    -0.26600
C722        C  0.76102564  0.68418716  0.11805310    -0.14700
C723        C  0.76598292  0.67467415  0.14920773     0.36000
C724        C  0.77926872  0.64522949  0.15560306    -0.26000
C725        C  0.78828712  0.62433672  0.13151454    -0.15300
C726        C  0.78258560  0.63349691  0.09995352     0.37100
N727        N  0.79016171  0.61336954  0.07393080    -0.89500
H728        H  0.76495424  0.67019876  0.06951223     0.18200
H729        H  0.78299980  0.63931783  0.18001789     0.18200
N730        N  0.75726918  0.69487852  0.17468486    -0.88600
H731        H  0.77220138  0.58155554  0.07669668     0.35500
H732        H  0.82136753  0.62051378  0.07387401     0.40600
H733        H  0.78403564  0.70977594  0.18817782     0.40300
H734        H  0.73445581  0.67234787  0.18872719     0.35100
C735        C  0.85760308  0.18076738  0.10766743    -0.26600
C736        C  0.84904859  0.20173733  0.13176725    -0.14700
C737        C  0.88200918  0.23564456  0.14623706     0.36000
C738        C  0.92276546  0.24612459  0.13775900    -0.26000
C739        C  0.93146875  0.22372703  0.11502891    -0.15300
C740        C  0.89845411  0.19117843  0.09939880     0.37100
N741        N  0.90550223  0.16817347  0.07519491    -0.89500
H742        H  0.83254739  0.15475851  0.09637559     0.18200
H743        H  0.94792750  0.27082578  0.14998464     0.18200
N744        N  0.87396291  0.25874029  0.17002343    -0.88600
H745        H  0.92153532  0.15335695  0.08467075     0.35500
H746        H  0.92387278  0.18882031  0.05787178     0.40600
H747        H  0.85789522  0.27288392  0.15942837     0.40300
H748        H  0.90156494  0.28242176  0.17851384     0.35100
C749        C  0.64144849  0.73130577  0.12586294    -0.26600
C750        C  0.67499550  0.75642092  0.10669788    -0.14700
C751        C  0.67575794  0.79228310  0.09328160     0.36000
C752        C  0.64567466  0.80427525  0.10176039    -0.26000
C753        C  0.61466969  0.78134920  0.12367539    -0.15300
C754        C  0.61134953  0.74331287  0.13431354     0.37100
N755        N  0.57767125  0.71689518  0.15404459    -0.89500
H756        H  0.63998099  0.70363479  0.13619828     0.18200
H757        H  0.64807054  0.83295594  0.09254277     0.18200
N758        N  0.70692041  0.81727505  0.07116336    -0.88600
H759        H  0.58994248  0.71102177  0.17449033     0.35500
H760        H  0.56128722  0.68885231  0.14245664     0.40600
H761        H  0.70646732  0.79849841  0.05261699     0.40300
H762        H  0.73581961  0.82930700  0.08189858     0.35100
C763        C  0.44457999  0.28271887  0.22088442    -0.26600
C764        C  0.41500852  0.24857831  0.20444313    -0.14700
C765        C  0.38500747  0.21494871  0.22172038     0.36000
C766        C  0.38653700  0.21540207  0.25456078    -0.26000
C767        C  0.41667359  0.24886434  0.27116661    -0.15300
C768        C  0.44587167  0.28321969  0.25401198     0.37100
N769        N  0.47724093  0.31806363  0.27004071    -0.89500
H770        H  0.46749878  0.30870758  0.20784987     0.18200
H771        H  0.36333367  0.18928531  0.26728977     0.18200
N772        N  0.35247656  0.18054159  0.20600760    -0.88600
H773        H  0.49560171  0.34097930  0.25404335     0.35500
H774        H  0.49666862  0.30820636  0.28120283     0.40600
H775        H  0.33384628  0.19134675  0.19477899     0.40300
H776        H  0.33353783  0.15809891  0.22209158     0.35100
C777        C  0.49081047  0.38601666  0.38680726    -0.26600
C778        C  0.47246288  0.38341720  0.41631018    -0.14700
C779        C  0.44099458  0.34459142  0.42643052     0.36000
C780        C  0.42831408  0.31032991  0.40679420    -0.26000
C781        C  0.44589535  0.31333084  0.37692731    -0.15300
C782        C  0.47798107  0.35164725  0.36721413     0.37100
N783        N  0.49810029  0.35594786  0.33762074    -0.89500
H784        H  0.51526896  0.41515926  0.37859032     0.18200
H785        H  0.40357477  0.28128379  0.41480169     0.18200
N786        N  0.42012915  0.33897008  0.45587070    -0.88600
H787        H  0.52958675  0.36638703  0.34175210     0.35500
H788        H  0.49476877  0.37848866  0.32453897     0.40600
H789        H  0.40684709  0.35885233  0.45679552     0.40300
H790        H  0.44156331  0.34589881  0.47400579     0.35100
C791        C  0.28648903  0.45247103  0.27263022    -0.26600
C792        C  0.25062115  0.44435759  0.28989536    -0.14700
C793        C  0.21485590  0.43899166  0.27328296     0.36000
C794        C  0.21504112  0.43916015  0.24034303    -0.26000
C795        C  0.25002162  0.44481764  0.22300993    -0.15300
C796        C  0.28646306  0.45260151  0.23951298     0.37100
N797        N  0.32301595  0.45888305  0.22295857    -0.89500
H798        H  0.31433247  0.45702708  0.28480385     0.18200
H799        H  0.18709741  0.43411991  0.22808815     0.18200
N800        N  0.17813424  0.43298431  0.28978385    -0.88600
H801        H  0.33109835  0.43623099  0.23023736     0.35500
H802        H  0.34682934  0.48756624  0.22940970     0.40600
H803        H  0.15436904  0.42853401  0.27414022     0.40300
H804        H  0.18503556  0.46013116  0.30193341     0.35100
C805        C  0.39818682  0.50415695  0.39935275    -0.26600
C806        C  0.39856528  0.48069867  0.42554049    -0.14700
C807        C  0.36010631  0.44802609  0.43564007     0.36000
C808        C  0.32391995  0.43869297  0.41871407    -0.26000
C809        C  0.32409089  0.46046450  0.39140250    -0.15300
C810        C  0.36192752  0.49454955  0.38231147     0.37100
N811        N  0.36482343  0.52052236  0.35617196    -0.89500
H812        H  0.42667502  0.52974156  0.39130863     0.18200
H813        H  0.29547116  0.41291818  0.42660535     0.18200
N814        N  0.35635304  0.42274367  0.46246011    -0.88600
H815        H  0.34296757  0.53121560  0.35895807     0.35500
H816        H  0.35895318  0.50356070  0.33550992     0.40600
H817        H  0.36723722  0.44144993  0.48224896     0.40300
H818        H  0.37350962  0.40689827  0.45868971     0.35100
C819        C  0.31555888  0.11517503  0.40281456    -0.26600
C820        C  0.30867925  0.08149199  0.38390011    -0.14700
C821        C  0.33138282  0.08786493  0.35605097     0.36000
C822        C  0.35993866  0.12785154  0.34712144    -0.26000
C823        C  0.36592920  0.16223133  0.36519182    -0.15300
C824        C  0.34398026  0.15536010  0.39396523     0.37100
N825        N  0.34811165  0.18829358  0.41400855    -0.89500
H826        H  0.29758430  0.11036139  0.42405392     0.18200
H827        H  0.37636154  0.13200974  0.32516557     0.18200
N828        N  0.32363382  0.05404013  0.33572187    -0.88600
H829        H  0.34060790  0.20842623  0.40130560     0.35500
H830        H  0.37865233  0.20385630  0.42176514     0.40600
H831        H  0.35156922  0.05323678  0.33211139     0.40300
H832        H  0.31379570  0.05984001  0.31407161     0.35100
C833        C  0.21121191  0.78643216  0.26383520    -0.26600
C834        C  0.17542855  0.75730486  0.27907581    -0.14700
C835        C  0.14260693  0.72846946  0.26066395     0.36000
C836        C  0.14536619  0.73119502  0.22779049    -0.26000
C837        C  0.18005942  0.76237027  0.21266902    -0.15300
C838        C  0.21388578  0.78940742  0.23117166     0.37100
N839        N  0.25161781  0.81998876  0.21763359    -0.89500
H840        H  0.23713155  0.80812350  0.27750418     0.18200
H841        H  0.11932950  0.70992498  0.21401817     0.18200
N842        N  0.10538787  0.69748210  0.27447302    -0.88600
H843        H  0.24610240  0.84224888  0.20617589     0.35500
H844        H  0.26233720  0.80574023  0.20147250     0.40600
H845        H  0.09257597  0.71183779  0.28867674     0.40300
H846        H  0.11277061  0.67818949  0.28835358     0.35100
C847        C  0.18860422  0.85747405  0.39600270    -0.26600
C848        C  0.20488175  0.84925952  0.36857704    -0.14700
C849        C  0.23516876  0.88277957  0.35123248     0.36000
C850        C  0.24625903  0.92319630  0.36052893    -0.26000
C851        C  0.22893109  0.93122869  0.38714583    -0.15300
C852        C  0.20009649  0.89806729  0.40524082     0.37100
N853        N  0.18165807  0.90479529  0.43277096    -0.89500
H854        H  0.16554003  0.83232420  0.40964360     0.18200
H855        H  0.26736359  0.94867849  0.34610913     0.18200
N856        N  0.25418631  0.87586997  0.32392225    -0.88600
H857        H  0.16589620  0.92136509  0.42643198     0.35500
H858        H  0.20528082  0.92266425  0.44829899     0.40600
H859        H  0.27141946  0.86122340  0.33137215     0.40300
H860        H  0.27508097  0.90377735  0.31363438     0.35100
C861        C  0.84667218  0.55331468  0.26894390    -0.26600
C862        C  0.81467408  0.55597094  0.28547923    -0.14700
C863        C  0.78076406  0.55459345  0.26847994     0.36000
C864        C  0.78104918  0.55359235  0.23556032    -0.26000
C865        C  0.81423725  0.55365302  0.21886352    -0.15300
C866        C  0.84686983  0.55243127  0.23588727     0.37100
N867        N  0.88135542  0.55256898  0.21984026    -0.89500
H868        H  0.87277320  0.55408790  0.28160476     0.18200
H869        H  0.75541361  0.55369980  0.22279173     0.18200
N870        N  0.74627268  0.55471916  0.28465371    -0.88600
H871        H  0.88399838  0.52652007  0.22700892     0.35500
H872        H  0.90805264  0.57865667  0.22682950     0.40600
H873        H  0.73205900  0.52747114  0.29777839     0.40300
H874        H  0.72420056  0.55417266  0.26875006     0.35100
C875        C  0.69295869  0.68175387  0.43715019    -0.26600
C876        C  0.69117837  0.69582707  0.40691435    -0.14700
C877        C  0.65357074  0.67804028  0.39048754     0.36000
C878        C  0.61840116  0.64613859  0.40454583    -0.26000
C879        C  0.62009704  0.63163401  0.43496456    -0.15300
C880        C  0.65808693  0.65008802  0.45131710     0.37100
N881        N  0.66198855  0.63621612  0.48201633    -0.89500
H882        H  0.72194542  0.69547445  0.44981374     0.18200
H883        H  0.58981118  0.63240609  0.39139464     0.18200
N884        N  0.65128184  0.69142710  0.35927005    -0.88600
H885        H  0.67184285  0.66122608  0.49729014     0.35500
H886        H  0.68496714  0.62675129  0.48118967     0.40600
H887        H  0.64135922  0.66598128  0.34443500     0.40300
H888        H  0.62884397  0.70163129  0.35897794     0.35100
C889        C  0.76038069  0.62866199  0.35871386    -0.26600
C890        C  0.79205111  0.62564910  0.37563686    -0.14700
C891        C  0.81075653  0.65340074  0.40079507     0.36000
C892        C  0.79972531  0.68481362  0.40658492    -0.26000
C893        C  0.76991284  0.68903312  0.38828133    -0.15300
C894        C  0.74953558  0.66019707  0.36444705     0.37100
N895        N  0.71960850  0.66442210  0.34486755    -0.89500
H896        H  0.74517987  0.60738387  0.33976719     0.18200
H897        H  0.81562715  0.70704685  0.42484413     0.18200
N898        N  0.84218529  0.65184727  0.42002710    -0.88600
H899        H  0.70730374  0.64062535  0.32847995     0.35500
H900        H  0.73494063  0.69183747  0.33207018     0.40600
H901        H  0.86683789  0.65526025  0.40576618     0.40300
H902        H  0.82983353  0.62323585  0.43136691     0.35100
C903        C  0.73059539  0.16174005  0.24133600    -0.26600
C904        C  0.76070241  0.15696535  0.22388131    -0.14700
C905        C  0.79039521  0.14933530  0.23989951     0.36000
C906        C  0.79141142  0.14987477  0.27274160    -0.26000
C907        C  0.76327412  0.15746395  0.29046702    -0.15300
C908        C  0.73168673  0.16232112  0.27453036     0.37100
N909        N  0.70195803  0.16952736  0.29182904    -0.89500
H910        H  0.70753366  0.16717766  0.22907384     0.18200
H911        H  0.81479152  0.14457171  0.28458587     0.18200
N912        N  0.81971908  0.14122966  0.22268951    -0.88600
H913        H  0.68046776  0.17163612  0.27666840     0.35500
H914        H  0.71781021  0.19826924  0.30256072     0.40600
H915        H  0.80317693  0.11361590  0.21059284     0.40300
H916        H  0.83970522  0.13661339  0.23790795     0.35100
C917        C  0.55827677  0.78638139  0.26984272    -0.26600
C918        C  0.56080194  0.82165770  0.28459002    -0.14700
C919        C  0.55874223  0.85264559  0.26577868     0.36000
C920        C  0.55750395  0.84898558  0.23292600    -0.26000
C921        C  0.55857588  0.81512653  0.21805713    -0.15300
C922        C  0.55737696  0.78279223  0.23721855     0.37100
N923        N  0.55568832  0.74593835  0.22453489    -0.89500
H924        H  0.55879436  0.76180680  0.28386191     0.18200
H925        H  0.55759724  0.87385933  0.21896376     0.18200
N926        N  0.55988096  0.88900092  0.27908549    -0.88600
H927        H  0.58364514  0.75335762  0.21332871     0.35500
H928        H  0.53132245  0.73329004  0.20852353     0.40600
H929        H  0.58688289  0.90402976  0.29229415     0.40300
H930        H  0.53435567  0.88022624  0.29387809     0.35100
C931        C  0.66992729  0.80618933  0.34438710    -0.26600
C932        C  0.64405731  0.80758487  0.36828222    -0.14700
C933        C  0.64895222  0.79583857  0.39901294     0.36000
C934        C  0.67889265  0.78239854  0.40503608    -0.26000
C935        C  0.70433836  0.78101894  0.38087833    -0.15300
C936        C  0.69973726  0.79316735  0.35039757     0.37100
N937        N  0.72461753  0.79114954  0.32515656    -0.89500
H938        H  0.66702179  0.81512811  0.32060201     0.18200
H939        H  0.68228304  0.77306856  0.42857746     0.18200
N940        N  0.62302935  0.79644947  0.42393350    -0.88600
H941        H  0.70494373  0.77143792  0.30806286     0.35500
H942        H  0.74058638  0.82057709  0.31526051     0.40600
H943        H  0.64198068  0.81582134  0.44149005     0.40300
H944        H  0.60736080  0.76667375  0.43327548     0.35100
C945        C  0.12731695  0.32150302  0.41930272    -0.26600
C946        C  0.09157318  0.31667864  0.40346152    -0.14700
C947        C  0.09558245  0.34470897  0.37929956     0.36000
C948        C  0.13483716  0.37561463  0.37058307    -0.26000
C949        C  0.17094264  0.37908112  0.38507622    -0.15300
C950        C  0.16679569  0.35245161  0.41048727     0.37100
N951        N  0.20252387  0.35508142  0.42632909    -0.89500
H952        H  0.12474803  0.29993715  0.43774468     0.18200
H953        H  0.13706900  0.39590382  0.35125402     0.18200
N954        N  0.06023994  0.34014884  0.36185569    -0.88600
H955        H  0.20272214  0.32672862  0.42416392     0.35500
H956        H  0.19971686  0.36003077  0.45013707     0.40600
H957        H  0.06483997  0.33549866  0.33831698     0.40300
H958        H  0.05841235  0.36777094  0.36336410     0.35100
C959        C  0.92966419  0.20249987  0.37008723    -0.26600
C960        C  0.94164103  0.21911694  0.40013156    -0.14700
C961        C  0.91126846  0.21927987  0.42070253     0.36000
C962        C  0.87027732  0.20449110  0.41001775    -0.26000
C963        C  0.85863663  0.18900954  0.37941254    -0.15300
C964        C  0.88895093  0.18738082  0.35964356     0.37100
N965        N  0.87869482  0.16984613  0.32892876    -0.89500
H966        H  0.95243686  0.20162763  0.35422395     0.18200
H967        H  0.84745418  0.20535230  0.42578821     0.18200
N968        N  0.92030377  0.23268887  0.45266541    -0.88600
H969        H  0.88606714  0.14546587  0.32773700     0.35500
H970        H  0.89704807  0.19230050  0.31262457     0.40600
H971        H  0.95057439  0.23983987  0.45866568     0.40300
H972        H  0.91731776  0.25963296  0.45482668     0.35100
C973        C  0.12153256  0.48290856  0.62460851    -0.26600
C974        C  0.13171327  0.45324920  0.61205223    -0.14700
C975        C  0.11690059  0.43778245  0.58181000     0.36000
C976        C  0.09164706  0.45111157  0.56549818    -0.26000
C977        C  0.07998776  0.47947144  0.57864698    -0.15300
C978        C  0.09606866  0.49602602  0.60842005     0.37100
N979        N  0.08622466  0.52570541  0.62277242    -0.89500
H980        H  0.13294169  0.49584468  0.64752058     0.18200
H981        H  0.07979563  0.43770218  0.54279069     0.18200
N982        N  0.12591236  0.40731842  0.56786760    -0.88600
H983        H  0.11384518  0.55225077  0.62721063     0.35500
H984        H  0.07186077  0.51369817  0.64428998     0.40600
H985        H  0.14070042  0.41892877  0.54641949     0.40300
H986        H  0.09795052  0.38120739  0.56330752     0.35100
C987        C  0.90000869  0.31502241  0.59889680    -0.26600
C988        C  0.87166471  0.31488110  0.62119187    -0.14700
C989        C  0.86431665  0.34947297  0.62313768     0.36000
C990        C  0.88590002  0.38346840  0.60338648    -0.26000
C991        C  0.91489543  0.38402440  0.58143394    -0.15300
C992        C  0.92182896  0.34906791  0.57927667     0.37100
N993        N  0.95199874  0.34775391  0.55847257    -0.89500
H994        H  0.90592017  0.28867022  0.59712278     0.18200
H995        H  0.88009083  0.40985715  0.60536999     0.18200
N996        N  0.83434939  0.35055722  0.64424456    -0.88600
H997        H  0.98068338  0.37287224  0.56314469     0.35500
H998        H  0.94349173  0.34969377  0.53535617     0.40600
H999        H  0.84337621  0.34887343  0.66723734     0.40300
H1000       H  0.80589391  0.32494506  0.63995457     0.35100
C1001       C  0.09638819  0.66207724  0.37237006    -0.26600
C1002       C  0.12841101  0.69768823  0.38530724    -0.14700
C1003       C  0.13811143  0.69746967  0.41750079     0.36000
C1004       C  0.11591623  0.66147932  0.43568170    -0.26000
C1005       C  0.08465041  0.62561500  0.42232200    -0.15300
C1006       C  0.07412013  0.62644089  0.39046686     0.37100
N1007       N  0.04011679  0.59130962  0.37669461    -0.89500
H1008       H  0.08802704  0.66220458  0.34799524     0.18200
H1009       H  0.12373592  0.66109152  0.46016529     0.18200
N1010       N  0.17092942  0.73328587  0.43150606    -0.88600
H1011       H  0.03656603  0.59680421  0.35306756     0.35500
H1012       H  0.01315275  0.58723911  0.38812762     0.40600
H1013       H  0.19855438  0.73792868  0.42088659     0.40300
H1014       H  0.17368961  0.72818590  0.45535074     0.35100
C1015       C  0.88084212  0.56093113  0.42019954    -0.26600
C1016       C  0.86886503  0.54399504  0.39010635    -0.14700
C1017       C  0.88206185  0.51521928  0.37977413     0.36000
C1018       C  0.90894838  0.50668507  0.39862830    -0.26000
C1019       C  0.92305389  0.52563834  0.42794070    -0.15300
C1020       C  0.90751587  0.55239910  0.43900341     0.37100
N1021       N  0.91866328  0.57236560  0.46884304    -0.89500
H1022       H  0.87061412  0.58238284  0.42903495     0.18200
H1023       H  0.91970623  0.48562911  0.38980372     0.18200
N1024       N  0.86856600  0.49484466  0.35010780    -0.88600
H1025       H  0.95029485  0.59252519  0.46898619     0.35500
H1026       H  0.91136517  0.55001958  0.48641229     0.40600
H1027       H  0.83674721  0.47569339  0.35173903     0.40300
H1028       H  0.88200984  0.47560927  0.34566279     0.35100
C1029       C  0.98013226  0.35845232  0.41968772    -0.26600
C1030       C  0.99666153  0.37432852  0.44936226    -0.14700
C1031       C  0.01626233  0.35528139  0.46664967     0.36000
C1032       C  0.02074609  0.32264777  0.45344462    -0.26000
C1033       C  0.00583689  0.30801418  0.42336550    -0.15300
C1034       C  0.98433955  0.32552089  0.40650377     0.37100
N1035       N  0.96849085  0.31249799  0.37546897    -0.89500
H1036       H  0.96475480  0.37246933  0.40612952     0.18200
H1037       H  0.03661612  0.30880433  0.46661122     0.18200
N1038       N  0.03303309  0.36976073  0.49715893    -0.88600
H1039       H  0.93626893  0.29861890  0.37678045     0.35500
H1040       H  0.97659559  0.29059639  0.36689213     0.40600
H1041       H  0.06464675  0.37855220  0.49655768     0.40300
H1042       H  0.01912377  0.34525654  0.51303261     0.35100
C1043       C  0.99536418  0.65542211  0.53725811    -0.26600
C1044       C  0.00668016  0.63235850  0.55805457    -0.14700
C1045       C  0.01252430  0.64353160  0.59009020     0.36000
C1046       C  0.00681344  0.67686673  0.60046613    -0.26000
C1047       C  0.99473563  0.69908550  0.57972054    -0.15300
C1048       C  0.98953754  0.68862060  0.54759113     0.37100
N1049       N  0.97840514  0.71087842  0.52478684    -0.89500
H1050       H  0.99062231  0.64754001  0.51261677     0.18200
H1051       H  0.01077619  0.68479429  0.62508237     0.18200
N1052       N  0.02372293  0.62098320  0.61236281    -0.88600
H1053       H  0.00252455  0.72378125  0.50852278     0.35500
H1054       H  0.97586130  0.73553443  0.53479364     0.40600
H1055       H  0.00088175  0.60944083  0.62970869     0.40300
H1056       H  0.05143150  0.64152240  0.62297211     0.35100
C1057       C  0.90291181  0.33222987  0.94509171    -0.26600
C1058       C  0.90855826  0.36988467  0.93192293    -0.14700
C1059       C  0.89122204  0.36915989  0.90197247     0.36000
C1060       C  0.87141181  0.33198993  0.88553205    -0.26000
C1061       C  0.86758561  0.29466487  0.89781227    -0.15300
C1062       C  0.88279629  0.29473477  0.92846274     0.37100
N1063       N  0.87882078  0.25725476  0.94247102    -0.89500
H1064       H  0.91556448  0.33216217  0.96805106     0.18200
H1065       H  0.85897696  0.33251504  0.86255727     0.18200
N1066       N  0.89400132  0.40619689  0.88789247    -0.88600
H1067       H  0.88999871  0.26242200  0.96547012     0.35500
H1068       H  0.89783008  0.24823741  0.92989039     0.40600
H1069       H  0.87598531  0.41556307  0.90139515     0.40300
H1070       H  0.88128929  0.40061771  0.86536021     0.35100
C1071       C  0.09292121  0.49101548  0.90165066    -0.26600
C1072       C  0.07561476  0.46880148  0.92949058    -0.14700
C1073       C  0.08568635  0.43713479  0.93811807     0.36000
C1074       C  0.11086731  0.42736952  0.91841038    -0.26000
C1075       C  0.12616718  0.44806821  0.88968471    -0.15300
C1076       C  0.11772714  0.48102385  0.88184057     0.37100
N1077       N  0.13406225  0.50457765  0.85371483    -0.89500
H1078       H  0.08623353  0.51578465  0.89453902     0.18200
H1079       H  0.11712339  0.40223995  0.92525004     0.18200
N1080       N  0.06912577  0.41348337  0.96617100    -0.88600
H1081       H  0.15186111  0.53543991  0.85993424     0.35500
H1082       H  0.10930606  0.50242334  0.84009622     0.40600
H1083       H  0.09379153  0.41612827  0.98012964     0.40300
H1084       H  0.05189762  0.38254506  0.95993094     0.35100
C1085       C  0.88570773  0.56648692  0.08620334    -0.26600
C1086       C  0.86652195  0.54377294  0.11337731    -0.14700
C1087       C  0.87358888  0.50998817  0.12153326     0.36000
C1088       C  0.90122243  0.50138811  0.10389807    -0.26000
C1089       C  0.92215629  0.52540755  0.07767700    -0.15300
C1090       C  0.91335118  0.55782351  0.06847815     0.37100
N1091       N  0.93363478  0.58331627  0.04192739    -0.89500
H1092       H  0.88060443  0.59229636  0.07925033     0.18200
H1093       H  0.90678953  0.47598442  0.11122925     0.18200
N1094       N  0.85269338  0.48401034  0.14771986    -0.88600
H1095       H  0.94995786  0.61377296  0.04955906     0.35500
H1096       H  0.91100409  0.58170318  0.02613861     0.40600
H1097       H  0.87495558  0.48466630  0.16348084     0.40300
H1098       H  0.83591346  0.45384040  0.13959584     0.35100
C1099       C  0.09303532  0.66187729  0.06425126    -0.26600
C1100       C  0.09165321  0.62517566  0.07602295    -0.14700
C1101       C  0.11451371  0.62740629  0.10339719     0.36000
C1102       C  0.13616944  0.66500976  0.11897855    -0.26000
C1103       C  0.13613179  0.70132012  0.10809634    -0.15300
C1104       C  0.11490147  0.69971000  0.08000144     0.37100
N1105       N  0.11398376  0.73588153  0.06796437    -0.89500
H1106       H  0.07585781  0.66108229  0.04329534     0.18200
H1107       H  0.15293288  0.66552239  0.14011010     0.18200
N1108       N  0.11601658  0.59158816  0.11567960    -0.88600
H1109       H  0.08315312  0.73001893  0.06663774     0.35500
H1110       H  0.12600985  0.74112893  0.04519534     0.40600
H1111       H  0.10473422  0.58678756  0.13867107     0.40300
H1112       H  0.14691351  0.59757324  0.11643880     0.35100
C1113       C  0.98823005  0.30387260  0.06357676    -0.26600
C1114       C  0.00212909  0.30612564  0.09448837    -0.14700
C1115       C  0.01044618  0.34127704  0.11265027     0.36000
C1116       C  0.00627895  0.37404757  0.09880916    -0.26000
C1117       C  0.99384283  0.37247383  0.06735466    -0.15300
C1118       C  0.98413750  0.33660174  0.04982462     0.37100
N1119       N  0.96971068  0.33300301  0.01817180    -0.89500
H1120       H  0.98108197  0.27652314  0.04990922     0.18200
H1121       H  0.01365729  0.40131483  0.11264716     0.18200
N1122       N  0.02302724  0.34478284  0.14492524    -0.88600
H1123       H  0.94073018  0.30714959  0.01690365     0.35500
H1124       H  0.98998206  0.32785964  0.00373651     0.40600
H1125       H  0.02364928  0.31804348  0.15282283     0.40300
H1126       H  0.00055024  0.34763533  0.15835427     0.35100
C1127       C  0.00928680  0.65403689  0.96299576    -0.26600
C1128       C  0.00707093  0.62280485  0.94284403    -0.14700
C1129       C  0.00371569  0.62749783  0.91011168     0.36000
C1130       C  0.00209001  0.66265833  0.89842933    -0.26000
C1131       C  0.00450686  0.69355742  0.91870798    -0.15300
C1132       C  0.00818339  0.68917482  0.95124003     0.37100
N1133       N  0.01002311  0.71976891  0.97286702    -0.89500
H1134       H  0.01173558  0.65119580  0.98813791     0.18200
H1135       H  0.99889676  0.66584572  0.87346120     0.18200
N1136       N  0.00115216  0.59645430  0.88863166    -0.88600
H1137       H  0.98366568  0.72374878  0.96981980     0.35500
H1138       H  0.03597602  0.74757193  0.96756105     0.40600
H1139       H  0.02558661  0.61006486  0.87268822     0.40300
H1140       H  0.97352280  0.58617902  0.87613634     0.35100
C1141       C  0.36319117  0.88197161  0.59108439    -0.26600
C1142       C  0.36773296  0.91138565  0.56804125    -0.14700
C1143       C  0.33439053  0.92042692  0.56266268     0.36000
C1144       C  0.29883522  0.90180521  0.58146818    -0.26000
C1145       C  0.29575519  0.87462235  0.60589934    -0.15300
C1146       C  0.32780225  0.86356690  0.60986719     0.37100
N1147       N  0.32510948  0.83334821  0.63249339    -0.89500
H1148       H  0.38795442  0.87401190  0.59517953     0.18200
H1149       H  0.27422369  0.91012236  0.57788791     0.18200
N1150       N  0.33649769  0.94996478  0.53958958    -0.88600
H1151       H  0.29778154  0.80627297  0.62858817     0.35500
H1152       H  0.32413729  0.84415404  0.65488951     0.40600
H1153       H  0.34002450  0.93979891  0.51748044     0.40300
H1154       H  0.36215409  0.97818228  0.54431976     0.35100
C1155       C  0.49044677  0.08765076  0.60550458    -0.26600
C1156       C  0.47140588  0.07338040  0.57624993    -0.14700
C1157       C  0.44281252  0.08682266  0.56559622     0.36000
C1158       C  0.43266889  0.11213069  0.58473599    -0.26000
C1159       C  0.45016979  0.12453037  0.61468424    -0.15300
C1160       C  0.48030018  0.11287179  0.62458644     0.37100
N1161       N  0.50102931  0.12660793  0.65400508    -0.89500
H1162       H  0.51289312  0.07846212  0.61418527     0.18200
H1163       H  0.40987502  0.12101553  0.57634957     0.18200
N1164       N  0.42292824  0.07404014  0.53577783    -0.88600
H1165       H  0.53274649  0.14297775  0.64963387     0.35500
H1166       H  0.49566682  0.10065621  0.66749643     0.40600
H1167       H  0.42957633  0.10041796  0.52240974     0.40300
H1168       H  0.39102151  0.05847594  0.53949455     0.35100
C1169       C  0.52529113  0.88653008  0.37928140    -0.26600
C1170       C  0.55565059  0.87610049  0.39033498    -0.14700
C1171       C  0.57208149  0.88962272  0.42066482     0.36000
C1172       C  0.56019815  0.91521018  0.43790740    -0.26000
C1173       C  0.53184294  0.92777789  0.42581891    -0.15300
C1174       C  0.51317820  0.91171607  0.39659123     0.37100
N1175       N  0.48197393  0.92101527  0.38408045    -0.89500
H1176       H  0.51101928  0.87566160  0.35663827     0.18200
H1177       H  0.57463897  0.92656301  0.46044153     0.18200
N1178       N  0.60157690  0.87845279  0.43396961    -0.88600
H1179       H  0.45523670  0.89324648  0.38055177     0.35500
H1180       H  0.49205330  0.93532941  0.36224994     0.40600
H1181       H  0.58959906  0.86298335  0.45514646     0.40300
H1182       H  0.62850086  0.90548076  0.43893310     0.35100
C1183       C  0.63958224  0.12472688  0.41385240    -0.26600
C1184       C  0.63587825  0.09458357  0.43597952    -0.14700
C1185       C  0.67057030  0.08767019  0.44136718     0.36000
C1186       C  0.70631741  0.10850746  0.42302120    -0.26000
C1187       C  0.70843175  0.13596554  0.39906356    -0.15300
C1188       C  0.67512756  0.14531197  0.39551047     0.37100
N1189       N  0.67644992  0.17573212  0.37364067    -0.89500
H1190       H  0.61395280  0.13143700  0.40994052     0.18200
H1191       H  0.73183642  0.10151155  0.42647027     0.18200
N1192       N  0.66987598  0.05825574  0.46399968    -0.88600
H1193       H  0.67718119  0.16562690  0.35096387     0.35500
H1194       H  0.70331470  0.20322377  0.37763065     0.40600
H1195       H  0.64562296  0.02933567  0.45863699     0.40300
H1196       H  0.66498427  0.06711732  0.48622519     0.35100
C1197       C  0.33810422  0.99582294  0.39039251    -0.26600
C1198       C  0.31129872  0.00346088  0.40947700    -0.14700
C1199       C  0.31888005  0.00868834  0.44196192     0.36000
C1200       C  0.35309560  0.00651057  0.45476488    -0.26000
C1201       C  0.38065223  0.99942830  0.43574726    -0.15300
C1202       C  0.37264506  0.99379490  0.40310727     0.37100
N1203       N  0.39938078  0.98614529  0.38262661    -0.89500
H1204       H  0.33250226  0.99173088  0.36545842     0.18200
H1205       H  0.35834819  0.01100945  0.47978706     0.18200
N1206       N  0.29220710  0.01641115  0.46243858    -0.88600
H1207       H  0.41056973  0.00934783  0.36551268     0.35500
H1208       H  0.38182180  0.95805711  0.37138282     0.40600
H1209       H  0.26232609  0.99219520  0.46028785     0.40300
H1210       H  0.29190495  0.04358590  0.45516620     0.35100
C1211       C  0.64871465  0.99073603  0.54505065    -0.26600
C1212       C  0.62607848  0.00495062  0.56351754    -0.14700
C1213       C  0.64182416  0.02205598  0.59324878     0.36000
C1214       C  0.67929887  0.02421877  0.60385188    -0.26000
C1215       C  0.70089026  0.00879180  0.58558984    -0.15300
C1216       C  0.68563557  0.99242488  0.55587795     0.37100
N1217       N  0.70806338  0.97785488  0.53646307    -0.89500
H1218       H  0.63754838  0.97769794  0.52211367     0.18200
H1219       H  0.69102763  0.03715075  0.62665804     0.18200
N1220       N  0.62025025  0.03761331  0.61264790    -0.88600
H1221       H  0.71511475  0.99445417  0.51537797     0.35500
H1222       H  0.68872965  0.94688094  0.53138763     0.40600
H1223       H  0.64001235  0.06866565  0.61713213     0.40300
H1224       H  0.61363427  0.02166995  0.63402168     0.35100
C1225       C  0.65511999  0.55812648  0.92730459    -0.26600
C1226       C  0.61864361  0.52580086  0.91531772    -0.14700
C1227       C  0.62126846  0.50715542  0.88680939     0.36000
C1228       C  0.65918295  0.52180145  0.87109848    -0.26000
C1229       C  0.69513119  0.55513224  0.88256367    -0.15300
C1230       C  0.69287928  0.57305378  0.91123655     0.37100
N1231       N  0.72829852  0.60769713  0.92359654    -0.89500
H1232       H  0.65428900  0.57325103  0.94886611     0.18200
H1233       H  0.66027828  0.50729054  0.84927140     0.18200
N1234       N  0.58632764  0.47339707  0.87297197    -0.88600
H1235       H  0.73389425  0.59996399  0.94611654     0.35500
H1236       H  0.72126433  0.63223389  0.92559481     0.40600
H1237       H  0.56478482  0.48323804  0.86621264     0.40300
H1238       H  0.57319584  0.44957798  0.88948050     0.35100
C1239       C  0.51138661  0.60108949  0.88672572    -0.26600
C1240       C  0.52138942  0.60243243  0.91870697    -0.14700
C1241       C  0.54207186  0.64143552  0.93320843     0.36000
C1242       C  0.55537838  0.67759092  0.91488790    -0.26000
C1243       C  0.54832361  0.67622895  0.88226492    -0.15300
C1244       C  0.52440799  0.63689595  0.86851097     0.37100
N1245       N  0.51284232  0.63160255  0.83610462    -0.89500
H1246       H  0.49476325  0.57169079  0.87508523     0.18200
H1247       H  0.57231876  0.70706532  0.92628515     0.18200
N1248       N  0.55024625  0.64442193  0.96634197    -0.88600
H1249       H  0.53929548  0.64162571  0.82219695     0.35500
H1250       H  0.49699270  0.64850060  0.83105722     0.40600
H1251       H  0.52177545  0.63194748  0.97792520     0.40300
H1252       H  0.56627578  0.67522704  0.97321740     0.35100
C1253       C  0.48399347  0.39691554  0.09749833    -0.26600
C1254       C  0.46874875  0.39618206  0.06701248    -0.14700
C1255       C  0.44309848  0.35702961  0.05357683     0.36000
C1256       C  0.43252785  0.32086939  0.07093187    -0.26000
C1257       C  0.44594291  0.32182139  0.10195395    -0.15300
C1258       C  0.47309158  0.36056344  0.11502020     0.37100
N1259       N  0.48940511  0.36320965  0.14612389    -0.89500
H1260       H  0.50391907  0.42621260  0.10824575     0.18200
H1261       H  0.41207019  0.29169028  0.06023830     0.18200
N1262       N  0.42585618  0.35246904  0.02280110    -0.88600
H1263       H  0.50784535  0.39390015  0.15250660     0.35500
H1264       H  0.50878086  0.34929140  0.14570957     0.40600
H1265       H  0.44978114  0.36681426  0.00654982     0.40300
H1266       H  0.40627894  0.36611413  0.02232210     0.35100
C1267       C  0.30508345  0.43630439  0.08716918    -0.26600
C1268       C  0.30927622  0.45761247  0.11545462    -0.14700
C1269       C  0.34817080  0.49097767  0.12266698     0.36000
C1270       C  0.38177944  0.50097485  0.10224121    -0.26000
C1271       C  0.37790030  0.47878162  0.07446028    -0.15300
C1272       C  0.33876660  0.44630839  0.06687787     0.37100
N1273       N  0.33316876  0.42226280  0.03921500    -0.89500
H1274       H  0.27566575  0.41066387  0.08104263     0.18200
H1275       H  0.41145290  0.52623786  0.10835661     0.18200
N1276       N  0.35366990  0.51472464  0.15064373    -0.88600
H1277       H  0.31024668  0.42405874  0.02555079     0.35500
H1278       H  0.32261075  0.39153319  0.04601703     0.40600
H1279       H  0.33581965  0.53015729  0.14825769     0.40300
H1280       H  0.38431498  0.53744387  0.15283805     0.35100
C1281       C  0.35116787  0.35284467  0.95514814    -0.26600
C1282       C  0.36945052  0.38847082  0.93623810    -0.14700
C1283       C  0.35459092  0.38637667  0.90506544     0.36000
C1284       C  0.32316569  0.34913985  0.89376960    -0.26000
C1285       C  0.30640077  0.31364121  0.91257527    -0.15300
C1286       C  0.32012398  0.31574669  0.94355946     0.37100
N1287       N  0.30184592  0.28020469  0.96353751    -0.89500
H1288       H  0.36128691  0.35336466  0.97906452     0.18200
H1289       H  0.31200750  0.34772820  0.87003371     0.18200
N1290       N  0.37017132  0.42126591  0.88435570    -0.88600
H1291       H  0.28938293  0.28764037  0.98307790     0.35500
H1292       H  0.32525561  0.27350261  0.97133815     0.40600
H1293       H  0.40126576  0.43034379  0.87964437     0.40300
H1294       H  0.36717491  0.44528044  0.89523565     0.35100
C1295       C  0.62723516  0.60739017  0.08565617    -0.26600
C1296       C  0.62331436  0.60875721  0.05282268    -0.14700
C1297       C  0.65109865  0.64494821  0.03647860     0.36000
C1298       C  0.67983971  0.67880691  0.05330590    -0.26000
C1299       C  0.68221209  0.67767273  0.08603515    -0.15300
C1300       C  0.65615046  0.64124816  0.10241590     0.37100
N1301       N  0.65786799  0.63756489  0.13591108    -0.89500
H1302       H  0.60692873  0.58004652  0.09878484     0.18200
H1303       H  0.70079365  0.70644052  0.04075769     0.18200
N1304       N  0.65136479  0.64849731  0.00298887    -0.88600
H1305       H  0.67930942  0.66515374  0.14588786     0.35500
H1306       H  0.62908320  0.63173609  0.14499410     0.40600
H1307       H  0.62322284  0.64650111  0.99559327     0.40300
H1308       H  0.65551891  0.62451555  0.99324309     0.35100
C1309       C  0.49484170  0.09466311  0.89771633    -0.26600
C1310       C  0.47934590  0.08148711  0.92809181    -0.14700
C1311       C  0.45283698  0.09611176  0.94120417     0.36000
C1312       C  0.44013028  0.12044669  0.92278777    -0.26000
C1313       C  0.45355322  0.13125549  0.89161661    -0.15300
C1314       C  0.48254913  0.11924174  0.87959092     0.37100
N1315       N  0.49962835  0.13149430  0.84877943    -0.89500
H1316       H  0.51568895  0.08463844  0.88724447     0.18200
H1317       H  0.41875111  0.13014036  0.93271851     0.18200
N1318       N  0.43804134  0.08557093  0.97288363    -0.88600
H1319       H  0.49244059  0.10490938  0.83575660     0.35500
H1320       H  0.53175329  0.14784905  0.85080295     0.40600
H1321       H  0.41817444  0.09789070  0.97862845     0.40300
H1322       H  0.46354859  0.09950693  0.98776801     0.35100
C1323       C  0.38455501  0.90797409  0.89119135    -0.26600
C1324       C  0.38210109  0.91852865  0.92257055    -0.14700
C1325       C  0.34280553  0.90909689  0.93499785     0.36000
C1326       C  0.30765096  0.89084044  0.91582037    -0.26000
C1327       C  0.31045370  0.88175913  0.88416018    -0.15300
C1328       C  0.34941560  0.88983775  0.87204429     0.37100
N1329       N  0.35361473  0.87933880  0.84040045    -0.89500
H1330       H  0.41411359  0.91430622  0.88107259     0.18200
H1331       H  0.27804095  0.88471096  0.92573865     0.18200
N1332       N  0.33826400  0.91878344  0.96681201    -0.88600
H1333       H  0.36639849  0.85899642  0.84095460     0.35500
H1334       H  0.37434950  0.90619211  0.82876222     0.40600
H1335       H  0.31788846  0.89153588  0.97819085     0.40300
H1336       H  0.32494032  0.93867475  0.96663647     0.35100
C1337       C  0.62377299  0.10644387  0.10797140    -0.26600
C1338       C  0.62667763  0.09062742  0.07852446    -0.14700
C1339       C  0.66605957  0.09727751  0.06813217     0.36000
C1340       C  0.70070512  0.11754759  0.08768661    -0.26000
C1341       C  0.69722586  0.13146728  0.11771837    -0.15300
C1342       C  0.65835516  0.12685962  0.12747682     0.37100
N1343       N  0.65397525  0.14303538  0.15710881    -0.89500
H1344       H  0.59411987  0.10248895  0.11621936     0.18200
H1345       H  0.73035661  0.12130600  0.07955493     0.18200
N1346       N  0.67115608  0.08285916  0.03809212    -0.88600
H1347       H  0.62329439  0.13657484  0.16096236     0.35500
H1348       H  0.67112698  0.17511629  0.15590289     0.40600
H1349       H  0.68366355  0.06256616  0.04153728     0.40300
H1350       H  0.69242736  0.10813905  0.02518918     0.35100
C1351       C  0.51578502  0.91799505  0.11009908    -0.26600
C1352       C  0.52450197  0.92332048  0.07780403    -0.14700
C1353       C  0.54080635  0.89913193  0.06343833     0.36000
C1354       C  0.55041949  0.87262289  0.08199950    -0.26000
C1355       C  0.54361954  0.86895130  0.11464965    -0.15300
C1356       C  0.52505146  0.89146570  0.12848478     0.37100
N1357       N  0.51612868  0.88846754  0.16139292    -0.89500
H1358       H  0.50292253  0.93573256  0.12173986     0.18200
H1359       H  0.56372324  0.85502758  0.07077792     0.18200
N1360       N  0.54792513  0.90165261  0.03016638    -0.88600
H1361       H  0.48450448  0.87865362  0.16419545     0.35500
H1362       H  0.53212155  0.91786156  0.17110122     0.40600
H1363       H  0.51920750  0.89058087  0.01913210     0.40300
H1364       H  0.56032113  0.88221283  0.02345003     0.35100
C1365       C  0.64675096  0.01989597  0.91531861    -0.26600
C1366       C  0.63048401  0.00274584  0.94487800    -0.14700
C1367       C  0.64692507  0.97964302  0.96073093     0.36000
C1368       C  0.67858138  0.97395903  0.94685369    -0.26000
C1369       C  0.69476063  0.99101931  0.91745457    -0.15300
C1370       C  0.67846836  0.01413860  0.90129249     0.37100
N1371       N  0.69273436  0.03159092  0.87069079    -0.89500
H1372       H  0.63438365  0.03753762  0.90271276     0.18200
H1373       H  0.69124069  0.95649433  0.95935766     0.18200
N1374       N  0.63116405  0.96110572  0.99066165    -0.88600
H1375       H  0.66742357  0.01924530  0.85551053     0.35500
H1376       H  0.71379838  0.02245809  0.86178764     0.40600
H1377       H  0.65552594  0.97258464  0.00673006     0.40300
H1378       H  0.62074401  0.92937583  0.98868985     0.35100
C1379       C  0.32580426  0.98907261  0.09726336    -0.26600
C1380       C  0.30604134  0.00446070  0.07686896    -0.14700
C1381       C  0.31935506  0.01342917  0.04538491     0.36000
C1382       C  0.35361012  0.00901541  0.03560948    -0.26000
C1383       C  0.37459385  0.99497763  0.05621839    -0.15300
C1384       C  0.35986279  0.98418745  0.08727794     0.37100
N1385       N  0.37917514  0.96824603  0.10879352    -0.89500
H1386       H  0.31508042  0.98151950  0.12125226     0.18200
H1387       H  0.36402609  0.01710403  0.01158939     0.18200
N1388       N  0.29882522  0.02676337  0.02264942    -0.88600
H1389       H  0.35691525  0.93922595  0.11641573     0.35500
H1390       H  0.38906810  0.98767430  0.12825755     0.40600
H1391       H  0.27266558  0.02718395  0.03200850     0.40300
H1392       H  0.28810007  0.00483778  0.00477925     0.35100
loop_ 
_geom_bond_atom_site_label_1 
_geom_bond_atom_site_label_2 
_geom_bond_distance 
_geom_bond_site_symmetry_2 
_ccdc_geom_bond_type 
O1           Ni7   1.932   1_565  S
O1           C22   1.270       .  A
O2          Ni25   1.902   1_556  S
O2           C11   1.268       .  A
O3           Ni7   1.915       .  S
O3          Ni25   1.909       .  S
O3          Ni19   1.916   1_544  S
O3           H26   0.967       .  S
C4           O21   1.276       .  A
C4           O13   1.278       .  A
C4         C1324   1.494       .  S
O5          Ni24   1.933   1_545  S
O5           C11   1.273       .  A
O6          Ni24   1.917   1_545  S
O6            C8   1.271       .  A
Ni7          O10   1.920       .  S
Ni7          O12   1.909   1_545  S
C8           O18   1.269       .  A
C8         C1310   1.500       .  S
O9          Ni25   1.928       .  S
O9           C15   1.277       .  A
O10          C15   1.276       .  A
C11        C1366   1.486       .  S
O12          C14   1.271       .  A
O13         Ni24   1.930       .  S
C14          O20   1.273       .  A
C14        C1352   1.498       .  S
C15        C1338   1.499       .  S
H16          O17   0.966       .  S
O17         Ni25   1.914   1_566  S
O17         Ni19   1.899       .  S
O17         Ni24   1.915       .  S
O18         Ni19   1.926   1_545  S
Ni19         O23   1.895   1_556  S
Ni19         O21   1.915       .  S
O20         Ni25   1.932   1_565  S
C22          O23   1.264       .  A
C22        C1383   1.485       .  S
O27         Ni33   1.930       .  S
O27          C48   1.270       .  A
O28         Ni51   1.908   1_554  S
O28          C37   1.266       .  A
O29         Ni33   1.910       .  S
O29         Ni51   1.902       .  S
O29         Ni45   1.923       .  S
O29          H52   0.966       .  S
C30          O47   1.283       .  A
C30          O39   1.278       .  A
C30        C1271   1.496       .  S
O31         Ni50   1.925       .  S
O31          C37   1.271       .  A
O32         Ni50   1.915       .  S
O32          C34   1.271       .  A
Ni33         O36   1.932       .  S
Ni33         O38   1.910       .  S
C34          O44   1.269       .  A
C34        C1254   1.504       .  S
O35         Ni51   1.916       .  S
O35          C41   1.277       .  A
O36          C41   1.277       .  A
C37        C1296   1.492       .  S
O38          C40   1.271       .  A
O39         Ni50   1.920       .  S
C40          O46   1.274       .  A
C40        C1240   1.499       .  S
C41        C1226   1.497       .  S
H42          O43   0.966       .  S
O43         Ni51   1.916   1_554  S
O43         Ni45   1.898   1_554  S
O43         Ni50   1.908       .  S
O44         Ni45   1.925   1_554  S
Ni45         O49   1.907       .  S
Ni45         O47   1.934   1_556  S
O46         Ni51   1.934       .  S
C48          O49   1.269       .  A
C48        C1282   1.492       .  S
O53         Ni59   1.945   1_545  S
O53          C74   1.275       .  A
O54         Ni77   1.905   1_545  S
O54          C63   1.268   1_545  A
O55         Ni59   1.915       .  S
O55         Ni77   1.910       .  S
O55         Ni71   1.912   1_565  S
O55          H78   0.966       .  S
C56          O73   1.275       .  A
C56          O65   1.277       .  A
C56        C1184   1.491       .  S
O57         Ni76   1.935   1_565  S
O57          C63   1.272       .  A
O58         Ni76   1.913   1_565  S
O58          C60   1.270       .  A
Ni59         O62   1.931       .  S
Ni59         O64   1.912   1_565  S
C60          O70   1.274       .  A
C60        C1173   1.500       .  S
O61         Ni77   1.917       .  S
O61          C67   1.275       .  A
O62          C67   1.278       .  A
C63        C1201   1.492       .  S
O64          C66   1.272       .  A
O65         Ni76   1.926       .  S
C66          O72   1.274       .  A
C66        C1156   1.501       .  S
C67        C1142   1.488       .  S
H68          O69   0.967       .  S
O69         Ni77   1.912   1_545  S
O69         Ni71   1.904       .  S
O69         Ni76   1.913       .  S
O70         Ni71   1.935   1_565  S
Ni71         O75   1.893   1_545  S
Ni71         O73   1.922       .  S
O72         Ni77   1.936   1_545  S
C74          O75   1.265   1_545  A
C74        C1212   1.488       .  S
O79         Ni85   1.928   1_455  S
O79         C100   1.270       .  A
O80        Ni103   1.902       .  S
O80          C89   1.268       .  A
O81         Ni85   1.909       .  S
O81        Ni103   1.906   1_556  S
O81         Ni97   1.916   1_656  S
O81         H104   0.968       .  S
C82          O99   1.277       .  A
C82          O91   1.277       .  A
C82        C1100   1.497       .  S
O83        Ni102   1.933   1_655  S
O83          C89   1.273       .  A
O84        Ni102   1.918   1_655  S
O84          C86   1.272       .  A
Ni85         O88   1.919       .  S
Ni85         O90   1.905   1_655  S
C86          O96   1.273       .  A
C86        C1089   1.501       .  S
O87        Ni103   1.934   1_556  S
O87          C93   1.280       .  A
O88          C93   1.275       .  A
C89        C1117   1.483       .  S
O90          C92   1.269       .  A
O91        Ni102   1.928       .  S
C92          O98   1.276       .  A
C92        C1072   1.501       .  S
C93        C1058   1.502       .  S
H94          O95   0.966       .  S
O95        Ni103   1.921   1_455  S
O95         Ni97   1.906       .  S
O95        Ni102   1.915       .  S
O96         Ni97   1.934   1_655  S
Ni97        O101   1.900   1_554  S
Ni97         O99   1.925       .  S
O98        Ni103   1.945   1_456  S
C100        O101   1.266       .  A
C100       C1128   1.485       .  S
O105       Ni111   1.936   1_655  S
O105        C126   1.272       .  A
O106       Ni129   1.903       .  S
O106        C115   1.267       .  A
O107       Ni111   1.917       .  S
O107       Ni129   1.910       .  S
O107       Ni123   1.917   1_455  S
O107        H130   0.966       .  S
C108        O125   1.276       .  A
C108        O117   1.276       .  A
C108        C991   1.485       .  S
O109       Ni128   1.930   1_455  S
O109        C115   1.271       .  A
O110       Ni128   1.917   1_455  S
O110        C112   1.271       .  A
Ni111       O114   1.925       .  S
Ni111       O116   1.909   1_455  S
C112        O122   1.272       .  A
C112        C977   1.500       .  S
O113       Ni129   1.924       .  S
O113        C119   1.276       .  A
O114        C119   1.276       .  A
C115       C1044   1.490       .  S
O116        C118   1.271       .  A
O117       Ni128   1.924       .  S
C118        O124   1.272       .  A
C118       C1019   1.502       .  S
C119       C1005   1.488       .  S
H120        O121   0.966       .  S
O121       Ni129   1.915   1_655  S
O121       Ni123   1.901       .  S
O121       Ni128   1.916       .  S
O122       Ni123   1.926   1_455  S
Ni123       O127   1.901   1_655  S
Ni123       O125   1.919       .  S
O124       Ni129   1.932   1_655  S
C126        O127   1.266   1_655  A
C126       C1030   1.488       .  S
N131        C135   1.361   1_455  A
N131        C132   1.360       .  A
N131       C1033   1.440       .  S
C132        C946   1.492       .  S
C132        C133   1.381       .  A
C133        C134   1.376       .  A
C133        H136   1.082       .  S
C134        C135   1.385   1_455  A
C134        H137   1.082   1_455  S
C135        C960   1.489       .  S
C138       C1170   1.503       .  S
C138        N139   1.367       .  A
C138        N143   1.369       .  A
N139        C140   1.359       .  A
C140        C918   1.488       .  S
C140        N141   1.352       .  A
N141        C142   1.354       .  A
C142        C932   1.491       .  S
C142        N143   1.364       .  A
C144       C1187   1.487       .  S
C144        N145   1.365       .  A
C144        N149   1.366       .  A
N145        C146   1.359       .  A
C146        C907   1.494       .  S
C146        N147   1.357       .  A
N147        C148   1.357       .  A
C148        C963   1.497       .  S
C148        N149   1.363       .  A
N150        C154   1.358       .  A
N150        C151   1.356       .  A
N150        C876   1.439       .  S
C151        C935   1.483       .  S
C151        C152   1.384       .  A
C152        C153   1.378       .  A
C152        H155   1.082       .  S
C153        C154   1.382       .  A
C153        H156   1.082       .  S
C154        C893   1.486       .  S
C157       C1016   1.501       .  S
C157        N158   1.366       .  A
C157        N162   1.364       .  A
N158        C159   1.361       .  A
C159        C890   1.497       .  S
C159        N160   1.357       .  A
N160        C161   1.356       .  A
C161        C862   1.490       .  S
C161        N162   1.360       .  A
C163       C1002   1.491       .  S
C163        N164   1.364       .  A
C163        N168   1.366       .  A
N164        C165   1.361       .  A
C165        C848   1.488       .  S
C165        N166   1.354       .  A
N166        C167   1.353       .  A
C167        C834   1.486       .  S
C167        N168   1.358       .  A
N169        C173   1.353   1_545  A
N169        C170   1.352       .  A
N169       C1198   1.438       .  S
C170        C820   1.475       .  S
C170        C171   1.381       .  A
C171        C172   1.379   1_545  A
C171        H174   1.082       .  S
C172        C173   1.383       .  A
C172        H175   1.082       .  S
C173        C851   1.475       .  S
C176        C809   1.501       .  S
C176        N177   1.367       .  A
C176        N181   1.364       .  A
N177        C178   1.362       .  A
C178        C949   1.496       .  S
C178        N179   1.357       .  A
N179        C180   1.357       .  A
C180        C792   1.498       .  S
C180        N181   1.361       .  A
C182        C781   1.489       .  S
C182        N183   1.365       .  A
C182        N187   1.361       .  A
N183        C184   1.361       .  A
C184        C767   1.494       .  S
C184        N185   1.358       .  A
N185        C186   1.356       .  A
C186        C823   1.491       .  S
C186        N187   1.356       .  A
C188       C1355   1.502       .  S
C188        N189   1.361       .  A
C188        N193   1.366       .  A
N189        C190   1.357       .  A
C190        C921   1.497       .  S
C190        N191   1.359       .  A
N191        C192   1.360       .  A
C192        C753   1.493       .  S
C192        N193   1.364       .  A
C194       C1341   1.493       .  S
C194        N195   1.368       .  A
C194        N199   1.364       .  A
N195        C196   1.361       .  A
C196        C904   1.487       .  S
C196        N197   1.353       .  A
N197        C198   1.353       .  A
C198        C736   1.480       .  S
C198        N199   1.359       .  A
N200        C204   1.357       .  A
N200        C201   1.360       .  A
N200       C1299   1.435       .  S
C201        C750   1.493       .  S
C201        C202   1.384       .  A
C202        C203   1.377       .  A
C202        H205   1.082       .  S
C203        C204   1.382       .  A
C203        H206   1.082       .  S
C204        C722   1.487       .  S
C207       C1086   1.500       .  S
C207        N208   1.371       .  A
C207        N212   1.365       .  A
N208        C209   1.367       .  A
C209        C725   1.504       .  S
C209        N210   1.356       .  A
N210        C211   1.352       .  A
C211        C865   1.491       .  S
C211        N212   1.357       .  A
C213       C1103   1.494       .  S
C213        N214   1.369       .  A
C213        N218   1.362       .  A
N214        C215   1.367       .  A
C215        C708   1.499       .  S
C215        N216   1.358       .  A
N216        C217   1.352       .  A
C217        C837   1.486       .  S
C217        N218   1.354       .  A
N219        C223   1.354   1_545  A
N219        C220   1.360       .  A
N219       C1380   1.435       .  S
C220        C694   1.494       .  S
C220        C221   1.385       .  A
C221        C222   1.380   1_545  A
C221        H224   1.082       .  S
C222        C223   1.382       .  A
C222        H225   1.082       .  S
C223        C711   1.485       .  S
C226       C1268   1.497       .  S
C226        N227   1.365       .  A
C226        N231   1.368       .  A
N227        C228   1.358       .  A
C228        C683   1.484       .  S
C228        N229   1.354       .  A
N229        C230   1.355       .  A
C230        C795   1.496       .  S
C230        N231   1.362       .  A
C232       C1257   1.500       .  S
C232        N233   1.369       .  A
C232        N237   1.364       .  A
N233        C234   1.363       .  A
C234        C697   1.487       .  S
C234        N235   1.353       .  A
N235        C236   1.354       .  A
C236        C764   1.492       .  S
C236        N237   1.359       .  A
N238        C242   1.355   1_455  A
N238        C239   1.357       .  A
N238       C1114   1.436       .  S
C239        C680   1.488       .  S
C239        C240   1.386       .  A
C240        C241   1.377   1_455  A
C240        H243   1.082       .  S
C241        C242   1.381       .  A
C241        H244   1.082       .  S
C242        C739   1.482       .  S
O245       Ni251   1.920       .  S
O245        C266   1.268       .  A
O246       Ni269   1.903       .  S
O246        C255   1.269       .  A
O247       Ni251   1.903       .  S
O247       Ni269   1.899       .  S
O247       Ni263   1.915       .  S
O247        H270   0.966       .  S
C248        O265   1.276       .  A
C248        O257   1.279       .  A
C248        C778   1.490       .  S
O249       Ni268   1.940       .  S
O249        C255   1.275       .  A
O250       Ni268   1.922       .  S
O250        C252   1.273       .  A
Ni251       O254   1.914       .  S
Ni251       O256   1.906       .  S
C252        O262   1.270       .  A
C252        C806   1.505       .  S
O253       Ni269   1.927       .  S
O253        C259   1.280       .  A
O254        C259   1.276       .  A
C255        C879   1.492       .  S
O256        C258   1.270       .  A
O257       Ni268   1.931       .  S
C258        O264   1.275       .  A
C258        C655   1.500       .  S
C259        C638   1.492       .  S
H260        O261   0.966       .  S
O261       Ni269   1.913       .  S
O261       Ni263   1.904       .  S
O261       Ni268   1.913       .  S
O262       Ni263   1.929       .  S
Ni263       O267   1.911       .  S
Ni263       O265   1.914       .  S
O264       Ni269   1.940       .  S
C266        O267   1.268       .  A
C266        C666   1.489       .  S
C271        C641   1.487       .  S
C271        N272   1.365       .  A
C271        N276   1.360       .  A
N272        C273   1.360       .  A
C273        C610   1.490       .  S
C273        N274   1.356       .  A
N274        C275   1.356       .  A
C275        C624   1.480       .  S
C275        N276   1.357       .  A
C277        C652   1.498       .  S
C277        N278   1.365       .  A
C277        N282   1.365       .  A
N278        C279   1.360       .  A
C279        C596   1.481       .  S
C279        N280   1.355       .  A
N280        C281   1.355       .  A
C281        C582   1.487       .  S
C281        N282   1.359       .  A
N283        C287   1.352       .  A
N283        C284   1.353   1_545  A
N283       C1215   1.440       .  S
C284        C627   1.477       .  S
C284        C285   1.381       .  A
C285        C286   1.378   1_565  A
C285        H288   1.082       .  S
C286        C287   1.384       .  A
C286        H289   1.082       .  S
C287        C568   1.472       .  S
C290        C988   1.481       .  S
C290        N291   1.366       .  A
C290        N295   1.361       .  A
N291        C292   1.362       .  A
C292        C557   1.496       .  S
C292        N293   1.355       .  A
N293        C294   1.355       .  A
C294        C571   1.495       .  S
C294        N295   1.355       .  A
C296        C974   1.499       .  S
C296        N297   1.363       .  A
C296        N301   1.365       .  A
N297        C298   1.359       .  A
C298        C526   1.495       .  S
C298        N299   1.360       .  A
N299        C300   1.360       .  A
C300        C543   1.492       .  S
C300        N301   1.363       .  A
N302        C306   1.359       .  A
N302        C303   1.355       .  A
N302        C669   1.436       .  S
C303        C512   1.483       .  S
C303        C304   1.381       .  A
C304        C305   1.379       .  A
C304        H307   1.082       .  S
C305        C306   1.386       .  A
C305        H308   1.082       .  S
C306        C540   1.494       .  S
C309       C1159   1.499       .  S
C309        N310   1.367       .  A
C309        N314   1.366       .  A
N310        C311   1.364       .  A
C311        C515   1.493       .  S
C311        N312   1.355       .  A
N312        C313   1.354       .  A
C313        C498   1.488       .  S
C313        N314   1.359       .  A
C315       C1145   1.483       .  S
C315        N316   1.363       .  A
C315        N320   1.365       .  A
N316        C317   1.361       .  A
C317        C484   1.489       .  S
C317        N318   1.356       .  A
N318        C319   1.355       .  A
C319        C470   1.493       .  S
C319        N320   1.360       .  A
N321        C325   1.353   1_655  A
N321        C322   1.357       .  A
N321       C1047   1.438       .  S
C322        C599   1.489       .  S
C322        C323   1.386       .  A
C323        C324   1.379   1_655  A
C323        H326   1.082       .  S
C324        C325   1.380       .  A
C324        H327   1.082       .  S
C325        C487   1.476       .  S
N328        C332   1.353       .  A
N328        C329   1.351   1_455  A
N328       C1131   1.434       .  S
C329        C456   1.478       .  S
C329        C330   1.382       .  A
C330        C331   1.380   1_655  A
C330        H333   1.082       .  S
C331        C332   1.383       .  A
C331        H334   1.082       .  S
C332        C442   1.481       .  S
C335       C1313   1.503       .  S
C335        N336   1.369       .  A
C335        N340   1.360       .  A
N336        C337   1.367       .  A
C337        C431   1.497       .  S
C337        N338   1.362       .  A
N338        C339   1.359       .  A
C339        C501   1.489       .  S
C339        N340   1.356       .  A
C341       C1327   1.490       .  S
C341        N342   1.362       .  A
C341        N346   1.366       .  A
N342        C343   1.356       .  A
C343        C445   1.479       .  S
C343        N344   1.354       .  A
N344        C345   1.356       .  A
C345        C473   1.489       .  S
C345        N346   1.361       .  A
C347       C1243   1.506       .  S
C347        N348   1.367       .  A
C347        N352   1.364       .  A
N348        C349   1.362       .  A
C349        C417   1.492       .  S
C349        N350   1.356       .  A
N350        C351   1.355       .  A
C351        C613   1.489       .  S
C351        N352   1.359       .  A
C353       C1229   1.491       .  S
C353        N354   1.362       .  A
C353        N358   1.365       .  A
N354        C355   1.357       .  A
C355        C585   1.488       .  S
C355        N356   1.356       .  A
N356        C357   1.359       .  A
C357        C459   1.501       .  S
C357        N358   1.363       .  A
N359        C363   1.360   1_565  A
N359        C360   1.358       .  A
N359       C1369   1.438       .  S
C360        C414   1.489       .  S
C360        C361   1.380       .  A
C361        C362   1.378       .  A
C361        H364   1.082       .  S
C362        C363   1.385   1_565  A
C362        H365   1.082   1_565  S
C363        C400   1.489       .  S
C366       C1061   1.501       .  S
C366        N367   1.367       .  A
C366        N371   1.365       .  A
N367        C368   1.365       .  A
C368        C403   1.492       .  S
C368        N369   1.357       .  A
N369        C370   1.352       .  A
C370        C554   1.492       .  S
C370        N371   1.356       .  A
C372       C1075   1.501       .  S
C372        N373   1.367       .  A
C372        N377   1.367       .  A
N373        C374   1.362       .  A
C374        C386   1.498       .  S
C374        N375   1.356       .  A
N375        C376   1.354       .  A
C376        C529   1.490       .  S
C376        N377   1.361       .  A
N378        C382   1.360       .  A
N378        C379   1.355       .  A
N378       C1285   1.437       .  S
C379        C389   1.484       .  S
C379        C380   1.382       .  A
C380        C381   1.380       .  A
C380        H383   1.082       .  S
C381        C382   1.385       .  A
C381        H384   1.082       .  S
C382        C428   1.494       .  S
C385        C386   1.409       .  A
C385        C390   1.394       .  A
C385        H392   1.083       .  S
C386        C387   1.419       .  A
C387        C388   1.416       .  A
C387        N394   1.437       .  S
C388        C389   1.404       .  A
C388        H393   1.083       .  S
C389        C390   1.408       .  A
C390        N391   1.433       .  S
N391        H395   1.045       .  S
N391        H396   1.045       .  S
N394        H397   1.046       .  S
N394        H398   1.046       .  S
C399        C400   1.401       .  A
C399        C404   1.401       .  A
C399        H406   1.084       .  S
C400        C401   1.415       .  A
C401        C402   1.409       .  A
C401        N408   1.431       .  S
C402        C403   1.408       .  A
C402        H407   1.083       .  S
C403        C404   1.417       .  A
C404        N405   1.439       .  S
N405        H409   1.046       .  S
N405        H410   1.046       .  S
N408        H411   1.045       .  S
N408        H412   1.041       .  S
C413        C414   1.405       .  A
C413        C418   1.407       .  A
C413        H420   1.084       .  S
C414        C415   1.407       .  A
C415        C416   1.402       .  A
C415        N422   1.431       .  S
C416        C417   1.406       .  A
C416        H421   1.084       .  S
C417        C418   1.418       .  A
C418        N419   1.432       .  S
N419        H423   1.045       .  S
N419        H424   1.045       .  S
N422        H425   1.046       .  S
N422        H426   1.046       .  S
C427        C428   1.401       .  A
C427        C432   1.406       .  A
C427        H434   1.083       .  S
C428        C429   1.414       .  A
C429        C430   1.415       .  A
C429        N436   1.437       .  S
C430        C431   1.407       .  A
C430        H435   1.083       .  S
C431        C432   1.414       .  A
C432        N433   1.431       .  S
N433        H437   1.045       .  S
N433        H438   1.046       .  S
N436        H439   1.046       .  S
N436        H440   1.046       .  S
C441        C442   1.401       .  A
C441        C446   1.396       .  A
C441        H448   1.082       .  S
C442        C443   1.407       .  A
C443        C444   1.407       .  A
C443        N450   1.432       .  S
C444        C445   1.405       .  A
C444        H449   1.084       .  S
C445        C446   1.416       .  A
C446        N447   1.433       .  S
N447        H451   1.046       .  S
N447        H452   1.044       .  S
N450        H453   1.045       .  S
N450        H454   1.046       .  S
C455        C456   1.400       .  A
C455        C460   1.411       .  A
C455        H462   1.084       .  S
C456        C457   1.403       .  A
C457        C458   1.401       .  A
C457        N464   1.433       .  S
C458        C459   1.410       .  A
C458        H463   1.083       .  S
C459        C460   1.419       .  A
C460        N461   1.430       .  S
N461        H465   1.046       .  S
N461        H466   1.046       .  S
N464        H467   1.046       .  S
N464        H468   1.045       .  S
C469        C470   1.406       .  A
C469        C474   1.404       .  A
C469        H476   1.084       .  S
C470        C471   1.413       .  A
C471        C472   1.410       .  A
C471        N478   1.430       .  S
C472        C473   1.406       .  A
C472        H477   1.084       .  S
C473        C474   1.415       .  A
C474        N475   1.439       .  S
N475        H479   1.046       .  S
N475        H480   1.046       .  S
N478        H481   1.046       .  S
N478        H482   1.045       .  S
C483        C484   1.408       .  A
C483        C488   1.405       .  A
C483        H490   1.083       .  S
C484        C485   1.416       .  A
C485        C486   1.399       .  A
C485        N492   1.433       .  S
C486        C487   1.397       .  A
C486        H491   1.084       .  S
C487        C488   1.410       .  A
C488        N489   1.432       .  S
N489        H493   1.045       .  S
N489        H494   1.046       .  S
N492        H495   1.046       .  S
N492        H496   1.046       .  S
C497        C498   1.405       .  A
C497        C502   1.398       .  A
C497        H504   1.084       .  S
C498        C499   1.416       .  A
C499        C500   1.406       .  A
C499        N506   1.432       .  S
C500        C501   1.408       .  A
C500        H505   1.084       .  S
C501        C502   1.414       .  A
C502        N503   1.431       .  S
N503        H507   1.046       .  S
N503        H508   1.041       .  S
N506        H509   1.045       .  S
N506        H510   1.045       .  S
C511        C512   1.398       .  A
C511        C516   1.401       .  A
C511        H518   1.083       .  S
C512        C513   1.413       .  A
C513        C514   1.407       .  A
C513        N520   1.432       .  S
C514        C515   1.408       .  A
C514        H519   1.083       .  S
C515        C516   1.417       .  A
C516        N517   1.433       .  S
N517        H521   1.046       .  S
N517        H522   1.046       .  S
N520        H523   1.046       .  S
N520        H524   1.045       .  S
C525        C526   1.409       .  A
C525        C530   1.407       .  A
C525        H532   1.084       .  S
C526        C527   1.417       .  A
C527        C528   1.399       .  A
C527        N534   1.431       .  S
C528        C529   1.404       .  A
C528        H533   1.084       .  S
C529        C530   1.416       .  A
C530        N531   1.432       .  S
N531        H535   1.045       .  S
N531        H536   1.045       .  S
N534        H537   1.046       .  S
N534        H538   1.043       .  S
C539        C540   1.402       .  A
C539        C544   1.404       .  A
C539        H546   1.081       .  S
C540        C541   1.414       .  A
C541        C542   1.411       .  A
C541        N548   1.437       .  S
C542        C543   1.405       .  A
C542        H547   1.084       .  S
C543        C544   1.420       .  A
C544        N545   1.437       .  S
N545        H549   1.045       .  S
N545        H550   1.043       .  S
N548        H551   1.045       .  S
N548        H552   1.046       .  S
C553        C554   1.409       .  A
C553        C558   1.407       .  A
C553        H560   1.084       .  S
C554        C555   1.417       .  A
C555        C556   1.396       .  A
C555        N562   1.433       .  S
C556        C557   1.407       .  A
C556        H561   1.084       .  S
C557        C558   1.419       .  A
C558        N559   1.432       .  S
N559        H563   1.045       .  S
N559        H564   1.045       .  S
N562        H565   1.045       .  S
N562        H566   1.044       .  S
C567        C568   1.399       .  A
C567        C572   1.405       .  A
C567        H574   1.084       .  S
C568        C569   1.405       .  A
C569        C570   1.397       .  A
C569        N576   1.439       .  S
C570        C571   1.409       .  A
C570        H575   1.082       .  S
C571        C572   1.424       .  A
C572        N573   1.432       .  S
N573        H577   1.045       .  S
N573        H578   1.045       .  S
N576        H579   1.043       .  S
N576        H580   1.045       .  S
C581        C582   1.404       .  A
C581        C586   1.397       .  A
C581        H588   1.084       .  S
C582        C583   1.415       .  A
C583        C584   1.406       .  A
C583        N590   1.432       .  S
C584        C585   1.407       .  A
C584        H589   1.084       .  S
C585        C586   1.418       .  A
C586        N587   1.433       .  S
N587        H591   1.044       .  S
N587        H592   1.046       .  S
N590        H593   1.045       .  S
N590        H594   1.044       .  S
C595        C596   1.404       .  A
C595        C600   1.410       .  A
C595        H602   1.084       .  S
C596        C597   1.415       .  A
C597        C598   1.397       .  A
C597        N604   1.433       .  S
C598        C599   1.403       .  A
C598        H603   1.080       .  S
C599        C600   1.414       .  A
C600        N601   1.437       .  S
N601        H605   1.046       .  S
N601        H606   1.046       .  S
N604        H607   1.046       .  S
N604        H608   1.043       .  S
C609        C610   1.406       .  A
C609        C614   1.413       .  A
C609        H616   1.083       .  S
C610        C611   1.414       .  A
C611        C612   1.403       .  A
C611        N618   1.439       .  S
C612        C613   1.404       .  A
C612        H617   1.084       .  S
C613        C614   1.414       .  A
C614        N615   1.437       .  S
N615        H619   1.046       .  S
N615        H620   1.046       .  S
N618        H621   1.046       .  S
N618        H622   1.046       .  S
C623        C624   1.402       .  A
C623        C628   1.399       .  A
C623        H630   1.084       .  S
C624        C625   1.412       .  A
C625        C626   1.405       .  A
C625        N632   1.431       .  S
C626        C627   1.401       .  A
C626        H631   1.084       .  S
C627        C628   1.408       .  A
C628        N629   1.431       .  S
N629        H633   1.046       .  S
N629        H634   1.046       .  S
N632        H635   1.046       .  S
N632        H636   1.046       .  S
C637        C638   1.406       .  A
C637        C642   1.404       .  A
C637        H644   1.084       .  S
C638        C639   1.417       .  A
C639        C640   1.402       .  A
C639        N646   1.433       .  S
C640        C641   1.402       .  A
C640        H645   1.084       .  S
C641        C642   1.414       .  A
C642        N643   1.432       .  S
N643        H647   1.046       .  S
N643        H648   1.046       .  S
N646        H649   1.046       .  S
N646        H650   1.046       .  S
C651        C652   1.410       .  A
C651        C656   1.407       .  A
C651        H658   1.083       .  S
C652        C653   1.413       .  A
C653        C654   1.402       .  A
C653        N660   1.433       .  S
C654        C655   1.409       .  A
C654        H659   1.084       .  S
C655        C656   1.419       .  A
C656        N657   1.432       .  S
N657        H661   1.043       .  S
N657        H662   1.045       .  S
N660        H663   1.046       .  S
N660        H664   1.046       .  S
C665        C666   1.407       .  A
C665        C670   1.405       .  A
C665        H672   1.083       .  S
C666        C667   1.417       .  A
C667        C668   1.403       .  A
C667        N674   1.432       .  S
C668        C669   1.398       .  A
C668        H673   1.082       .  S
C669        C670   1.406       .  A
C670        N671   1.437       .  S
N671        H675   1.046       .  S
N671        H676   1.045       .  S
N674        H677   1.046       .  S
N674        H678   1.046       .  S
C679        C680   1.401       .  A
C679        C684   1.395       .  A
C679        H686   1.084       .  S
C680        C681   1.414       .  A
C681        C682   1.416       .  A
C681        N688   1.436       .  S
C682        C683   1.407       .  A
C682        H687   1.083       .  S
C683        C684   1.410       .  A
C684        N685   1.433       .  S
N685        H689   1.046       .  S
N685        H690   1.046       .  S
N688        H691   1.045       .  S
N688        H692   1.046       .  S
C693        C694   1.403       .  A
C693        C698   1.401       .  A
C693        H700   1.081       .  S
C694        C695   1.413       .  A
C695        C696   1.410       .  A
C695        N702   1.432       .  S
C696        C697   1.404       .  A
C696        H701   1.084       .  S
C697        C698   1.418       .  A
C698        N699   1.433       .  S
N699        H703   1.043       .  S
N699        H704   1.046       .  S
N702        H705   1.046       .  S
N702        H706   1.046       .  S
C707        C708   1.410       .  A
C707        C712   1.398       .  A
C707        H714   1.083       .  S
C708        C709   1.417       .  A
C709        C710   1.415       .  A
C709        N716   1.431       .  S
C710        C711   1.405       .  A
C710        H715   1.084       .  S
C711        C712   1.403       .  A
C712        N713   1.433       .  S
N713        H717   1.046       .  S
N713        H718   1.045       .  S
N716        H719   1.046       .  S
N716        H720   1.045       .  S
C721        C722   1.405       .  A
C721        C726   1.413       .  A
C721        H728   1.084       .  S
C722        C723   1.404       .  A
C723        C724   1.396       .  A
C723        N730   1.434       .  S
C724        C725   1.411       .  A
C724        H729   1.083       .  S
C725        C726   1.423       .  A
C726        N727   1.431       .  S
N727        H731   1.045       .  S
N727        H732   1.045       .  S
N730        H733   1.046       .  S
N730        H734   1.046       .  S
C735        C736   1.405       .  A
C735        C740   1.403       .  A
C735        H742   1.084       .  S
C736        C737   1.413       .  A
C737        C738   1.402       .  A
C737        N744   1.438       .  S
C738        C739   1.401       .  A
C738        H743   1.082       .  S
C739        C740   1.413       .  A
C740        N741   1.432       .  S
N741        H745   1.044       .  S
N741        H746   1.046       .  S
N744        H747   1.045       .  S
N744        H748   1.046       .  S
C749        C750   1.402       .  A
C749        C754   1.407       .  A
C749        H756   1.080       .  S
C750        C751   1.417       .  A
C751        C752   1.406       .  A
C751        N758   1.433       .  S
C752        C753   1.405       .  A
C752        H757   1.084       .  S
C753        C754   1.412       .  A
C754        N755   1.432       .  S
N755        H759   1.045       .  S
N755        H760   1.045       .  S
N758        H761   1.046       .  S
N758        H762   1.043       .  S
C763        C764   1.407       .  A
C763        C768   1.413       .  A
C763        H770   1.083       .  S
C764        C765   1.416       .  A
C765        C766   1.401       .  A
C765        N772   1.439       .  S
C766        C767   1.405       .  A
C766        H771   1.083       .  S
C767        C768   1.416       .  A
C768        N769   1.437       .  S
N769        H773   1.046       .  S
N769        H774   1.046       .  S
N772        H775   1.046       .  S
N772        H776   1.046       .  S
C777        C778   1.408       .  A
C777        C782   1.402       .  A
C777        H784   1.084       .  S
C778        C779   1.418       .  A
C779        C780   1.401       .  A
C779        N786   1.433       .  S
C780        C781   1.408       .  A
C780        H785   1.083       .  S
C781        C782   1.410       .  A
C782        N783   1.432       .  S
N783        H787   1.046       .  S
N783        H788   1.046       .  S
N786        H789   1.045       .  S
N786        H790   1.045       .  S
C791        C792   1.409       .  A
C791        C796   1.412       .  A
C791        H798   1.083       .  S
C792        C793   1.417       .  A
C793        C794   1.404       .  A
C793        N800   1.439       .  S
C794        C795   1.406       .  A
C794        H799   1.083       .  S
C795        C796   1.413       .  A
C796        N797   1.432       .  S
N797        H801   1.046       .  S
N797        H802   1.046       .  S
N800        H803   1.046       .  S
N800        H804   1.045       .  S
C805        C806   1.408       .  A
C805        C810   1.405       .  A
C805        H812   1.083       .  S
C806        C807   1.425       .  A
C807        C808   1.402       .  A
C807        N814   1.433       .  S
C808        C809   1.405       .  A
C808        H813   1.084       .  S
C809        C810   1.421       .  A
C810        N811   1.432       .  S
N811        H815   1.046       .  S
N811        H816   1.044       .  S
N814        H817   1.045       .  S
N814        H818   1.045       .  S
C819        C820   1.399       .  A
C819        C824   1.402       .  A
C819        H826   1.084       .  S
C820        C821   1.404       .  A
C821        C822   1.400       .  A
C821        N828   1.432       .  S
C822        C823   1.407       .  A
C822        H827   1.084       .  S
C823        C824   1.422       .  A
C824        N825   1.431       .  S
N825        H829   1.045       .  S
N825        H830   1.045       .  S
N828        H831   1.046       .  S
N828        H832   1.046       .  S
C833        C834   1.405       .  A
C833        C838   1.396       .  A
C833        H840   1.084       .  S
C834        C835   1.416       .  A
C835        C836   1.405       .  A
C835        N842   1.432       .  S
C836        C837   1.407       .  A
C836        H841   1.084       .  S
C837        C838   1.416       .  A
C838        N839   1.433       .  S
N839        H843   1.044       .  S
N839        H844   1.046       .  S
N842        H845   1.045       .  S
N842        H846   1.045       .  S
C847        C848   1.408       .  A
C847        C852   1.403       .  A
C847        H854   1.083       .  S
C848        C849   1.419       .  A
C849        C850   1.401       .  A
C849        N856   1.439       .  S
C850        C851   1.397       .  A
C850        H855   1.083       .  S
C851        C852   1.410       .  A
C852        N853   1.432       .  S
N853        H857   1.045       .  S
N853        H858   1.045       .  S
N856        H859   1.045       .  S
N856        H860   1.046       .  S
C861        C862   1.407       .  A
C861        C866   1.410       .  A
C861        H868   1.084       .  S
C862        C863   1.415       .  A
C863        C864   1.404       .  A
C863        N870   1.438       .  S
C864        C865   1.405       .  A
C864        H869   1.084       .  S
C865        C866   1.412       .  A
C866        N867   1.432       .  S
N867        H871   1.045       .  S
N867        H872   1.046       .  S
N870        H873   1.046       .  S
N870        H874   1.046       .  S
C875        C876   1.398       .  A
C875        C880   1.400       .  A
C875        H882   1.084       .  S
C876        C877   1.406       .  A
C877        C878   1.407       .  A
C877        N884   1.431       .  S
C878        C879   1.411       .  A
C878        H883   1.083       .  S
C879        C880   1.415       .  A
C880        N881   1.432       .  S
N881        H885   1.046       .  S
N881        H886   1.046       .  S
N884        H887   1.045       .  S
N884        H888   1.046       .  S
C889        C890   1.409       .  A
C889        C894   1.405       .  A
C889        H896   1.083       .  S
C890        C891   1.421       .  A
C891        C892   1.406       .  A
C891        N898   1.432       .  S
C892        C893   1.403       .  A
C892        H897   1.084       .  S
C893        C894   1.409       .  A
C894        N895   1.438       .  S
N895        H899   1.045       .  S
N895        H900   1.046       .  S
N898        H901   1.045       .  S
N898        H902   1.045       .  S
C903        C904   1.405       .  A
C903        C908   1.416       .  A
C903        H910   1.084       .  S
C904        C905   1.412       .  A
C905        C906   1.401       .  A
C905        N912   1.439       .  S
C906        C907   1.404       .  A
C906        H911   1.083       .  S
C907        C908   1.417       .  A
C908        N909   1.435       .  S
N909        H913   1.046       .  S
N909        H914   1.046       .  S
N912        H915   1.046       .  S
N912        H916   1.046       .  S
C917        C918   1.403       .  A
C917        C922   1.397       .  A
C917        H924   1.084       .  S
C918        C919   1.415       .  A
C919        C920   1.406       .  A
C919        N926   1.432       .  S
C920        C921   1.412       .  A
C920        H925   1.083       .  S
C921        C922   1.418       .  A
C922        N923   1.431       .  S
N923        H927   1.043       .  S
N923        H928   1.046       .  S
N926        H929   1.045       .  S
N926        H930   1.045       .  S
C931        C932   1.407       .  A
C931        C936   1.398       .  A
C931        H938   1.084       .  S
C932        C933   1.413       .  A
C933        C934   1.413       .  A
C933        N940   1.431       .  S
C934        C935   1.405       .  A
C934        H939   1.083       .  S
C935        C936   1.406       .  A
C936        N937   1.433       .  S
N937        H941   1.046       .  S
N937        H942   1.046       .  S
N940        H943   1.046       .  S
N940        H944   1.046       .  S
C945        C946   1.406       .  A
C945        C950   1.411       .  A
C945        H952   1.084       .  S
C946        C947   1.409       .  A
C947        C948   1.404       .  A
C947        N954   1.430       .  S
C948        C949   1.407       .  A
C948        H953   1.084       .  S
C949        C950   1.414       .  A
C950        N951   1.432       .  S
N951        H955   1.046       .  S
N951        H956   1.046       .  S
N954        H957   1.046       .  S
N954        H958   1.046       .  S
C959        C960   1.401       .  A
C959        C964   1.398       .  A
C959        H966   1.084       .  S
C960        C961   1.417       .  A
C961        C962   1.412       .  A
C961        N968   1.436       .  S
C962        C963   1.410       .  A
C962        H967   1.083       .  S
C963        C964   1.415       .  A
C964        N965   1.433       .  S
N965        H969   1.046       .  S
N965        H970   1.046       .  S
N968        H971   1.043       .  S
N968        H972   1.045       .  S
C973        C974   1.408       .  A
C973        C978   1.406       .  A
C973        H980   1.083       .  S
C974        C975   1.414       .  A
C975        C976   1.408       .  A
C975        N982   1.432       .  S
C976        C977   1.410       .  A
C976        H981   1.083       .  S
C977        C978   1.415       .  A
C978        N979   1.432       .  S
N979        H983   1.046       .  S
N979        H984   1.046       .  S
N982        H985   1.046       .  S
N982        H986   1.046       .  S
C987        C988   1.404       .  A
C987        C992   1.400       .  A
C987        H994   1.084       .  S
C988        C989   1.413       .  A
C989        C990   1.401       .  A
C989        N996   1.432       .  S
C990        C991   1.407       .  A
C990        H995   1.084       .  S
C991        C992   1.418       .  A
C992        N993   1.433       .  S
N993        H997   1.046       .  S
N993        H998   1.045       .  S
N996        H999   1.044       .  S
N996       H1000   1.046       .  S
C1001      C1002   1.403       .  A
C1001      C1006   1.403       .  A
C1001      H1008   1.083       .  S
C1002      C1003   1.418       .  A
C1003      C1004   1.413       .  A
C1003      N1010   1.438       .  S
C1004      C1005   1.405       .  A
C1004      H1009   1.083       .  S
C1005      C1006   1.415       .  A
C1006      N1007   1.439       .  S
N1007      H1011   1.046       .  S
N1007      H1012   1.046       .  S
N1010      H1013   1.046       .  S
N1010      H1014   1.046       .  S
C1015      C1016   1.407       .  A
C1015      C1020   1.402       .  A
C1015      H1022   1.083       .  S
C1016      C1017   1.418       .  A
C1017      C1018   1.409       .  A
C1017      N1024   1.438       .  S
C1018      C1019   1.409       .  A
C1018      H1023   1.083       .  S
C1019      C1020   1.422       .  A
C1020      N1021   1.433       .  S
N1021      H1025   1.045       .  S
N1021      H1026   1.045       .  S
N1024      H1027   1.046       .  S
N1024      H1028   1.046       .  S
C1029      C1030   1.409       .  A
C1029      C1034   1.404       .  A
C1029      H1036   1.084       .  S
C1030      C1031   1.412   1_655  A
C1031      C1032   1.399       .  A
C1031      N1038   1.433       .  S
C1032      C1033   1.402       .  A
C1032      H1037   1.084       .  S
C1033      C1034   1.414   1_455  A
C1034      N1035   1.436       .  S
N1035      H1039   1.046       .  S
N1035      H1040   1.042       .  S
N1038      H1041   1.046       .  S
N1038      H1042   1.046       .  S
C1043      C1044   1.408   1_655  A
C1043      C1048   1.400       .  A
C1043      H1050   1.083       .  S
C1044      C1045   1.415       .  A
C1045      C1046   1.403       .  A
C1045      N1052   1.432       .  S
C1046      C1047   1.400   1_455  A
C1046      H1051   1.082       .  S
C1047      C1048   1.413       .  A
C1048      N1049   1.439       .  S
N1049      H1053   1.046   1_655  S
N1049      H1054   1.042       .  S
N1052      H1055   1.046       .  S
N1052      H1056   1.046       .  S
C1057      C1058   1.409       .  A
C1057      C1062   1.416       .  A
C1057      H1064   1.082       .  S
C1058      C1059   1.419       .  A
C1059      C1060   1.402       .  A
C1059      N1066   1.439       .  S
C1060      C1061   1.405       .  A
C1060      H1065   1.083       .  S
C1061      C1062   1.419       .  A
C1062      N1063   1.437       .  S
N1063      H1067   1.046       .  S
N1063      H1068   1.045       .  S
N1066      H1069   1.046       .  S
N1066      H1070   1.046       .  S
C1071      C1072   1.409       .  A
C1071      C1076   1.407       .  A
C1071      H1078   1.084       .  S
C1072      C1073   1.415       .  A
C1073      C1074   1.410       .  A
C1073      N1080   1.432       .  S
C1074      C1075   1.409       .  A
C1074      H1079   1.083       .  S
C1075      C1076   1.414       .  A
C1076      N1077   1.432       .  S
N1077      H1081   1.046       .  S
N1077      H1082   1.046       .  S
N1080      H1083   1.046       .  S
N1080      H1084   1.046       .  S
C1085      C1086   1.406       .  A
C1085      C1090   1.411       .  A
C1085      H1092   1.083       .  S
C1086      C1087   1.416       .  A
C1087      C1088   1.407       .  A
C1087      N1094   1.433       .  S
C1088      C1089   1.406       .  A
C1088      H1093   1.084       .  S
C1089      C1090   1.418       .  A
C1090      N1091   1.433       .  S
N1091      H1095   1.046       .  S
N1091      H1096   1.046       .  S
N1094      H1097   1.046       .  S
N1094      H1098   1.046       .  S
C1099      C1100   1.410       .  A
C1099      C1104   1.412       .  A
C1099      H1106   1.084       .  S
C1100      C1101   1.414       .  A
C1101      C1102   1.401       .  A
C1101      N1108   1.433       .  S
C1102      C1103   1.405       .  A
C1102      H1107   1.084       .  S
C1103      C1104   1.412       .  A
C1104      N1105   1.432       .  S
N1105      H1109   1.046       .  S
N1105      H1110   1.046       .  S
N1108      H1111   1.046       .  S
N1108      H1112   1.046       .  S
C1113      C1114   1.401   1_655  A
C1113      C1118   1.399       .  A
C1113      H1120   1.084       .  S
C1114      C1115   1.413       .  A
C1115      C1116   1.403       .  A
C1115      N1122   1.438       .  S
C1116      C1117   1.408   1_455  A
C1116      H1121   1.084       .  S
C1117      C1118   1.410       .  A
C1118      N1119   1.432       .  S
N1119      H1123   1.046       .  S
N1119      H1124   1.046       .  S
N1122      H1125   1.043       .  S
N1122      H1126   1.046       .  S
C1127      C1128   1.406       .  A
C1127      C1132   1.395       .  A
C1127      H1134   1.084       .  S
C1128      C1129   1.417       .  A
C1129      C1130   1.404       .  A
C1129      N1136   1.432       .  S
C1130      C1131   1.397       .  A
C1130      H1135   1.082   1_455  S
C1131      C1132   1.409       .  A
C1132      N1133   1.432       .  S
N1133      H1137   1.046   1_455  S
N1133      H1138   1.045       .  S
N1136      H1139   1.046       .  S
N1136      H1140   1.046   1_455  S
C1141      C1142   1.405       .  A
C1141      C1146   1.399       .  A
C1141      H1148   1.084       .  S
C1142      C1143   1.419       .  A
C1143      C1144   1.404       .  A
C1143      N1150   1.433       .  S
C1144      C1145   1.404       .  A
C1144      H1149   1.084       .  S
C1145      C1146   1.413       .  A
C1146      N1147   1.432       .  S
N1147      H1151   1.046       .  S
N1147      H1152   1.042       .  S
N1150      H1153   1.045       .  S
N1150      H1154   1.045       .  S
C1155      C1156   1.408       .  A
C1155      C1160   1.406       .  A
C1155      H1162   1.083       .  S
C1156      C1157   1.417       .  A
C1157      C1158   1.410       .  A
C1157      N1164   1.433       .  S
C1158      C1159   1.407       .  A
C1158      H1163   1.083       .  S
C1159      C1160   1.414       .  A
C1160      N1161   1.432       .  S
N1161      H1165   1.046       .  S
N1161      H1166   1.046       .  S
N1164      H1167   1.046       .  S
N1164      H1168   1.046       .  S
C1169      C1170   1.408       .  A
C1169      C1174   1.405       .  A
C1169      H1176   1.083       .  S
C1170      C1171   1.417       .  A
C1171      C1172   1.410       .  A
C1171      N1178   1.432       .  S
C1172      C1173   1.409       .  A
C1172      H1177   1.084       .  S
C1173      C1174   1.414       .  A
C1174      N1175   1.433       .  S
N1175      H1179   1.046       .  S
N1175      H1180   1.046       .  S
N1178      H1181   1.046       .  S
N1178      H1182   1.046       .  S
C1183      C1184   1.406       .  A
C1183      C1188   1.399       .  A
C1183      H1190   1.084       .  S
C1184      C1185   1.420       .  A
C1185      C1186   1.405       .  A
C1185      N1192   1.433       .  S
C1186      C1187   1.406       .  A
C1186      H1191   1.084       .  S
C1187      C1188   1.415       .  A
C1188      N1189   1.432       .  S
N1189      H1193   1.042       .  S
N1189      H1194   1.046       .  S
N1192      H1195   1.045       .  S
N1192      H1196   1.045       .  S
C1197      C1198   1.398   1_565  A
C1197      C1202   1.405       .  A
C1197      H1204   1.080       .  S
C1198      C1199   1.409       .  A
C1199      C1200   1.398       .  A
C1199      N1206   1.432       .  S
C1200      C1201   1.408   1_545  A
C1200      H1205   1.084       .  S
C1201      C1202   1.418       .  A
C1202      N1203   1.432       .  S
N1203      H1207   1.046   1_565  S
N1203      H1208   1.046       .  S
N1206      H1209   1.045   1_545  S
N1206      H1210   1.045       .  S
C1211      C1212   1.406   1_565  A
C1211      C1216   1.398       .  A
C1211      H1218   1.084       .  S
C1212      C1213   1.416       .  A
C1213      C1214   1.408       .  A
C1213      N1220   1.432       .  S
C1214      C1215   1.402       .  A
C1214      H1219   1.081       .  S
C1215      C1216   1.404   1_545  A
C1216      N1217   1.432       .  S
N1217      H1221   1.046       .  S
N1217      H1222   1.046       .  S
N1220      H1223   1.046       .  S
N1220      H1224   1.046       .  S
C1225      C1226   1.409       .  A
C1225      C1230   1.404       .  A
C1225      H1232   1.083       .  S
C1226      C1227   1.422       .  A
C1227      C1228   1.402       .  A
C1227      N1234   1.433       .  S
C1228      C1229   1.406       .  A
C1228      H1233   1.084       .  S
C1229      C1230   1.411       .  A
C1230      N1231   1.431       .  S
N1231      H1235   1.046       .  S
N1231      H1236   1.046       .  S
N1234      H1237   1.045       .  S
N1234      H1238   1.045       .  S
C1239      C1240   1.406       .  A
C1239      C1244   1.400       .  A
C1239      H1246   1.084       .  S
C1240      C1241   1.415       .  A
C1241      C1242   1.411       .  A
C1241      N1248   1.438       .  S
C1242      C1243   1.411       .  A
C1242      H1247   1.082       .  S
C1243      C1244   1.423       .  A
C1244      N1245   1.432       .  S
N1245      H1249   1.044       .  S
N1245      H1250   1.045       .  S
N1248      H1251   1.046       .  S
N1248      H1252   1.046       .  S
C1253      C1254   1.409       .  A
C1253      C1258   1.409       .  A
C1253      H1260   1.083       .  S
C1254      C1255   1.424       .  A
C1255      C1256   1.402       .  A
C1255      N1262   1.431       .  S
C1256      C1257   1.405       .  A
C1256      H1261   1.083       .  S
C1257      C1258   1.419       .  A
C1258      N1259   1.438       .  S
N1259      H1263   1.046       .  S
N1259      H1264   1.046       .  S
N1262      H1265   1.045       .  S
N1262      H1266   1.044       .  S
C1267      C1268   1.409       .  A
C1267      C1272   1.407       .  A
C1267      H1274   1.083       .  S
C1268      C1269   1.415       .  A
C1269      C1270   1.408       .  A
C1269      N1276   1.438       .  S
C1270      C1271   1.410       .  A
C1270      H1275   1.083       .  S
C1271      C1272   1.412       .  A
C1272      N1273   1.433       .  S
N1273      H1277   1.045       .  S
N1273      H1278   1.046       .  S
N1276      H1279   1.046       .  S
N1276      H1280   1.046       .  S
C1281      C1282   1.407       .  A
C1281      C1286   1.399       .  A
C1281      H1288   1.081       .  S
C1282      C1283   1.424       .  A
C1283      C1284   1.403       .  A
C1283      N1290   1.432       .  S
C1284      C1285   1.400       .  A
C1284      H1289   1.083       .  S
C1285      C1286   1.402       .  A
C1286      N1287   1.432       .  S
N1287      H1291   1.046       .  S
N1287      H1292   1.046       .  S
N1290      H1293   1.045       .  S
N1290      H1294   1.045       .  S
C1295      C1296   1.410       .  A
C1295      C1300   1.400       .  A
C1295      H1302   1.083       .  S
C1296      C1297   1.421       .  A
C1297      C1298   1.399       .  A
C1297      N1304   1.433       .  S
C1298      C1299   1.399       .  A
C1298      H1303   1.084       .  S
C1299      C1300   1.411       .  A
C1300      N1301   1.438       .  S
N1301      H1305   1.043       .  S
N1301      H1306   1.046       .  S
N1304      H1307   1.044   1_554  S
N1304      H1308   1.046   1_554  S
C1309      C1310   1.404       .  A
C1309      C1314   1.404       .  A
C1309      H1316   1.084       .  S
C1310      C1311   1.421       .  A
C1311      C1312   1.413       .  A
C1311      N1318   1.438       .  S
C1312      C1313   1.407       .  A
C1312      H1317   1.083       .  S
C1313      C1314   1.418       .  A
C1314      N1315   1.433       .  S
N1315      H1319   1.046       .  S
N1315      H1320   1.046       .  S
N1318      H1321   1.046       .  S
N1318      H1322   1.046       .  S
C1323      C1324   1.409       .  A
C1323      C1328   1.403       .  A
C1323      H1330   1.083       .  S
C1324      C1325   1.415       .  A
C1325      C1326   1.405       .  A
C1325      N1332   1.433       .  S
C1326      C1327   1.407       .  A
C1326      H1331   1.084       .  S
C1327      C1328   1.411       .  A
C1328      N1329   1.433       .  S
N1329      H1333   1.046       .  S
N1329      H1334   1.046       .  S
N1332      H1335   1.046       .  S
N1332      H1336   1.046       .  S
C1337      C1338   1.410       .  A
C1337      C1342   1.406       .  A
C1337      H1344   1.083       .  S
C1338      C1339   1.414       .  A
C1339      C1340   1.408       .  A
C1339      N1346   1.433       .  S
C1340      C1341   1.408       .  A
C1340      H1345   1.084       .  S
C1341      C1342   1.413       .  A
C1342      N1343   1.438       .  S
N1343      H1347   1.046       .  S
N1343      H1348   1.046       .  S
N1346      H1349   1.046       .  S
N1346      H1350   1.046       .  S
C1351      C1352   1.406       .  A
C1351      C1356   1.402       .  A
C1351      H1358   1.084       .  S
C1352      C1353   1.417       .  A
C1353      C1354   1.413       .  A
C1353      N1360   1.437       .  S
C1354      C1355   1.409       .  A
C1354      H1359   1.083       .  S
C1355      C1356   1.417       .  A
C1356      N1357   1.433       .  S
N1357      H1361   1.046       .  S
N1357      H1362   1.046       .  S
N1360      H1363   1.046       .  S
N1360      H1364   1.045       .  S
C1365      C1366   1.408       .  A
C1365      C1370   1.404       .  A
C1365      H1372   1.084       .  S
C1366      C1367   1.412   1_545  A
C1367      C1368   1.398       .  A
C1367      N1374   1.432       .  S
C1368      C1369   1.401       .  A
C1368      H1373   1.084       .  S
C1369      C1370   1.415   1_565  A
C1370      N1371   1.437       .  S
N1371      H1375   1.045       .  S
N1371      H1376   1.043       .  S
N1374      H1377   1.046   1_556  S
N1374      H1378   1.045       .  S
C1379      C1380   1.401   1_565  A
C1379      C1384   1.403       .  A
C1379      H1386   1.083       .  S
C1380      C1381   1.412       .  A
C1381      C1382   1.397       .  A
C1381      N1388   1.439       .  S
C1382      C1383   1.407   1_545  A
C1382      H1387   1.084       .  S
C1383      C1384   1.414       .  A
C1384      N1385   1.432       .  S
N1385      H1389   1.046       .  S
N1385      H1390   1.046       .  S
N1388      H1391   1.042       .  S
N1388      H1392   1.046       .  S
