geometry optimzed in LAMMPS
_audit_creation_date              2020-11-30 
_audit_creation_method            'lammps2cif' 
_symmetry_space_group_name_H-M    'P1' 
_symmetry_Int_Tables_number       1 
_symmetry_cell_setting            triclinic 
loop_ 
_symmetry_equiv_pos_as_xyz 
  x,y,z 
_cell_length_a                    37.78335668 
_cell_length_b                    37.59936456835567 
_cell_length_c                    37.90964890044386 
_cell_angle_alpha                 91.00250407975643 
_cell_angle_beta                  89.78012596585526 
_cell_angle_gamma                 89.02415987328456 
loop_ 
_atom_site_label 
_atom_site_type_symbol 
_atom_site_fract_x 
_atom_site_fract_y 
_atom_site_fract_z 
_atom_site_charge 
Zn1        Zn  0.48495179  0.52517346  0.01674751     1.49700
Zn2        Zn  0.54798507  0.52440460  0.95803541     1.49400
Zn3        Zn  0.54441353  0.46080999  0.01593946     1.49100
Zn4        Zn  0.48490203  0.46379791  0.95475976     1.49500
O5          O  0.51565679  0.49352873  0.98604822    -1.83500
O6          O  0.49310963  0.57813649  0.00698439    -0.74100
O7          O  0.60118355  0.51270371  0.97068621    -0.74000
O8          O  0.53306435  0.47100117  0.06808119    -0.73500
O9          O  0.53715671  0.57860054  0.96808646    -0.74200
O10         O  0.49471336  0.51652319  0.06917518    -0.73800
O11         O  0.59788514  0.46952445  0.00989886    -0.74300
O12         O  0.49436729  0.40897781  0.96208267    -0.73700
O13         O  0.53833345  0.51632653  0.90437866    -0.74500
O14         O  0.53452465  0.40748730  0.00468925    -0.73900
O15         O  0.49475016  0.47709194  0.90259619    -0.74400
O16         O  0.43152131  0.47459901  0.96569881    -0.74300
O17         O  0.43216625  0.51596291  0.00825139    -0.74000
C18         C  0.51426409  0.59535972  0.98746763     0.77700
C19         C  0.61637896  0.49076207  0.99170123     0.78200
C20         C  0.51393419  0.49377120  0.08527998     0.77200
C21         C  0.51431570  0.39113985  0.98296425     0.77600
C22         C  0.51604368  0.49782566  0.88676704     0.78700
C23         C  0.41499098  0.49560982  0.98736567     0.77800
Zn24       Zn  0.46651639  0.97138849  0.46112183     1.49700
Zn25       Zn  0.52823427  0.97378115  0.52422891     1.49400
Zn26       Zn  0.52908825  0.03004824  0.45996615     1.49100
Zn27       Zn  0.46586630  0.03469818  0.52118050     1.49500
O28         O  0.49741838  0.00232709  0.49169162    -1.83500
O29         O  0.47573046  0.91881904  0.47417714    -0.74100
O30         O  0.58251268  0.98116213  0.51286403    -0.74000
O31         O  0.52019634  0.01756036  0.40725079    -0.73500
O32         O  0.51667955  0.92037847  0.51636550    -0.74200
O33         O  0.47764703  0.97751893  0.40704720    -0.73800
O34         O  0.58272883  0.01990818  0.46930576    -0.74300
O35         O  0.47686557  0.08694380  0.50920977    -0.73700
O36         O  0.51712289  0.98688438  0.57772034    -0.74500
O37         O  0.51896666  0.08361574  0.46785077    -0.73900
O38         O  0.47385969  0.02749324  0.57509586    -0.74400
O39         O  0.41237381  0.02523629  0.51159850    -0.74300
O40         O  0.41270470  0.98230930  0.47058674    -0.74000
C41         C  0.49571685  0.90280923  0.49630365     0.77700
C42         C  0.59966490  0.99987400  0.49065863     0.78200
C43         C  0.49970611  0.99663699  0.39025372     0.77200
C44         C  0.49808568  0.10206503  0.48790520     0.77600
C45         C  0.49469030  0.00793396  0.59337677     0.78700
C46         C  0.39556043  0.00377567  0.49133532     0.77800
Zn47       Zn  0.97152346  0.53348188  0.47277666     1.49700
Zn48       Zn  0.03273087  0.53724723  0.53131828     1.49400
Zn49       Zn  0.97455421  0.47261140  0.53496527     1.49100
Zn50       Zn  0.03383557  0.47032736  0.47342700     1.49500
O51         O  0.00311673  0.50333024  0.50308963    -1.83500
O52         O  0.97715302  0.58825110  0.48264651    -0.74100
O53         O  0.02112095  0.53245091  0.58422990    -0.74000
O54         O  0.92146488  0.48137376  0.52513850    -0.73500
O55         O  0.02211232  0.59054104  0.52011665    -0.74200
O56         O  0.91923680  0.52133186  0.48232428    -0.73800
O57         O  0.98352896  0.48745071  0.58742813    -0.74300
O58         O  0.02311792  0.41610764  0.48164516    -0.73700
O59         O  0.08612380  0.52607776  0.52227439    -0.74500
O60         O  0.98459046  0.41760552  0.52611611    -0.73900
O61         O  0.08683316  0.47997932  0.48429793    -0.74400
O62         O  0.02544258  0.48066750  0.42060921    -0.74300
O63         O  0.98302617  0.52272845  0.42004067    -0.74000
C64         C  0.99867759  0.60634914  0.50150117     0.77700
C65         C  0.00159424  0.51204605  0.60229649     0.78200
C66         C  0.90381568  0.50072628  0.50381434     0.77200
C67         C  0.00348651  0.39977219  0.50356182     0.77600
C68         C  0.10313513  0.50288317  0.50336718     0.78700
C69         C  0.00474967  0.50160819  0.40377732     0.77800
Zn70       Zn  0.03926500  0.02791050  0.96574071     1.49700
Zn71       Zn  0.04074916  0.96931926  0.02896476     1.49400
Zn72       Zn  0.97950706  0.02977630  0.02904935     1.49100
Zn73       Zn  0.97813568  0.96600692  0.96910398     1.49500
O74         O  0.00936651  0.99827925  0.99780957    -1.83500
O75         O  0.09299597  0.01392174  0.97115944    -0.74100
O76         O  0.03296658  0.98136605  0.08229818    -0.74000
O77         O  0.98948758  0.08228278  0.01891697    -0.73500
O78         O  0.09274844  0.97490240  0.01455809    -0.74200
O79         O  0.03049571  0.08288319  0.97663376    -0.73800
O80         O  0.98921225  0.02148119  0.08223426    -0.74300
O81         O  0.92429001  0.97687441  0.98045890    -0.73700
O82         O  0.03189954  0.91616147  0.02186858    -0.74500
O83         O  0.92656718  0.02072645  0.02047856    -0.73900
O84         O  0.99022321  0.91298170  0.98076797    -0.74400
O85         O  0.98762179  0.97263413  0.91504655    -0.74300
O86         O  0.02725226  0.01571310  0.91321910    -0.74000
C87         C  0.10951920  0.99202751  0.99110572     0.77700
C88         C  0.01111776  0.00189060  0.09914972     0.78200
C89         C  0.00969555  0.09959652  0.99843242     0.77200
C90         C  0.90853176  0.99935647  0.00133448     0.77600
C91         C  0.01195665  0.89769540  0.00185511     0.78700
C92         C  0.00759714  0.99307734  0.89727292     0.77800
C93         C  0.71488380  0.51206088  0.97895710     0.03700
C94         C  0.67781964  0.51169164  0.97427217    -0.12400
C95         C  0.65627174  0.49008717  0.99564892     0.01200
C96         C  0.67339563  0.46804023  0.02103270    -0.10900
C97         C  0.71074278  0.46800062  0.02458981     0.03700
C98         C  0.73045575  0.49052993  0.00397174    -0.10400
H99         H  0.66596089  0.52826075  0.95428396     0.09300
H100        H  0.65799090  0.45091653  0.03760373     0.06900
H101        H  0.75904831  0.49069379  0.00689603     0.06700
C102        C  0.31897632  0.52048650  0.01342921     0.03700
C103        C  0.30051208  0.49971485  0.98946867    -0.12400
C104        C  0.31768824  0.47689728  0.96566266     0.01200
C105        C  0.35501523  0.47513213  0.96485153    -0.10900
C106        C  0.37505163  0.49673225  0.98832074     0.03700
C107        C  0.35638511  0.51942901  0.01286486    -0.10400
H108        H  0.27174042  0.50074196  0.98986513     0.09300
H109        H  0.36818687  0.45721591  0.94616661     0.06900
H110        H  0.37068383  0.53575072  0.03160766     0.06700
C111        C  0.98210624  0.47864540  0.30806768     0.03700
C112        C  0.98181043  0.47896353  0.34529376    -0.12400
C113        C  0.00551823  0.50091340  0.36437083     0.01200
C114        C  0.03002753  0.52170820  0.34542078    -0.10900
C115        C  0.03007463  0.52069984  0.30813829     0.03700
C116        C  0.00617627  0.49940081  0.29041587    -0.10400
H117        H  0.96349022  0.46232548  0.35923344     0.09300
H118        H  0.04864979  0.53829740  0.35943668     0.06900
H119        H  0.00705379  0.49824149  0.26174366     0.06700
C120        C  0.98378115  0.19466539  0.02880901     0.03700
C121        C  0.00623150  0.21467652  0.00855385    -0.12400
C122        C  0.02917876  0.19924085  0.98390184     0.01200
C123        C  0.03050637  0.16162570  0.97965507    -0.10900
C124        C  0.00854376  0.13991657  0.00088960     0.03700
C125        C  0.98465360  0.15729201  0.02512111    -0.10400
H126        H  0.00465614  0.24352619  0.01097038     0.09300
H127        H  0.04824138  0.14956212  0.96021964     0.06900
H128        H  0.96681700  0.14199142  0.04105540     0.06700
C129        C  0.97983420  0.55220991  0.69357001     0.03700
C130        C  0.99750822  0.52825641  0.71493290    -0.12400
C131        C  0.01647715  0.49944880  0.70092904     0.01200
C132        C  0.01766966  0.49365365  0.66408789    -0.10900
C133        C  0.99972654  0.51745480  0.64143716     0.03700
C134        C  0.98079853  0.54705968  0.65653623    -0.10400
H135        H  0.99670029  0.53230754  0.74339462     0.09300
H136        H  0.03278950  0.47130741  0.65317241     0.06900
H137        H  0.96693287  0.56562783  0.63974218     0.06700
Zn138      Zn  0.14775260  0.40236701  0.84406968     1.49700
Zn139      Zn  0.07503801  0.37242794  0.85745869     1.49400
Zn140      Zn  0.13247712  0.31879875  0.84469929     1.49100
Zn141      Zn  0.13394841  0.36415746  0.91492610     1.49500
O142        O  0.12425212  0.36550397  0.86583797    -1.83500
O143        O  0.11240227  0.43512990  0.82221841    -0.74100
O144        O  0.06603632  0.35164150  0.81011943    -0.74000
O145        O  0.16480517  0.32316193  0.80254327    -0.73500
O146        O  0.06077972  0.42273488  0.84728714    -0.74200
O147        O  0.17214277  0.38165296  0.80285146    -0.73800
O148        O  0.08781234  0.29939804  0.82481972    -0.74300
O149        O  0.16023430  0.32078803  0.92577802    -0.73700
O150        O  0.05329679  0.34074360  0.89361002    -0.74500
O151        O  0.15280472  0.28489610  0.87942739    -0.73900
O152        O  0.08804895  0.35229772  0.93958968    -0.74400
O153        O  0.17119047  0.40106995  0.92878911    -0.74300
O154        O  0.18491095  0.42216956  0.87587991    -0.74000
C155        C  0.07883019  0.43858215  0.82383538     0.77700
C156        C  0.07187434  0.31918978  0.80301943     0.78200
C157        C  0.17667081  0.35116000  0.78857199     0.77200
C158        C  0.16405931  0.29082901  0.91051161     0.77600
C159        C  0.06542504  0.33248456  0.92388797     0.78700
C160        C  0.19186403  0.41819492  0.90846398     0.77800
C161        C  0.99574351  0.79888564  0.98179796     0.03700
C162        C  0.02127625  0.78280348  0.00281694    -0.12400
C163        C  0.04282342  0.80276325  0.02499737     0.01200
C164        C  0.03992473  0.84030438  0.02492479    -0.10900
C165        C  0.01479625  0.85767803  0.00284439     0.03700
C166        C  0.99228641  0.83629728  0.98185531    -0.10400
H167        H  0.02287886  0.75396955  0.00366186     0.09300
H168        H  0.05660571  0.85569583  0.04238627     0.06900
H169        H  0.97205743  0.84855369  0.96570139     0.06700
Zn170      Zn  0.86592422  0.67940718  0.81625613     1.49700
Zn171      Zn  0.88024094  0.62973661  0.87751547     1.49400
Zn172      Zn  0.82990609  0.69114706  0.88769756     1.49100
Zn173      Zn  0.80287057  0.63550520  0.84365896     1.49500
O174        O  0.84620526  0.65717297  0.85528965    -1.83500
O175        O  0.91653709  0.66421007  0.81065915    -0.74100
O176        O  0.90922914  0.66638433  0.90787837    -0.74000
O177        O  0.80734202  0.72770020  0.85797347    -0.73500
O178        O  0.90721890  0.61102057  0.83336237    -0.74200
O179        O  0.85153013  0.73053293  0.81900447    -0.73800
O180        O  0.86913994  0.71011085  0.91497886    -0.74300
O181        O  0.76288337  0.66540441  0.86672494    -0.73700
O182        O  0.84817115  0.59376566  0.90412808    -0.74500
O183        O  0.79290077  0.66923887  0.91614124    -0.73900
O184        O  0.80301245  0.58972102  0.86620762    -0.74400
O185        O  0.79897711  0.62882961  0.79125597    -0.74300
O186        O  0.84439474  0.66027434  0.77256018    -0.74000
C187        C  0.91995594  0.63041404  0.80896765     0.77700
C188        C  0.90007162  0.69747892  0.91979747     0.78200
C189        C  0.82066425  0.73976519  0.82998223     0.77200
C190        C  0.76503925  0.67603548  0.89888119     0.77600
C191        C  0.81844936  0.58048633  0.89434776     0.78700
C192        C  0.81832533  0.64030469  0.76644780     0.77800
Zn193      Zn  0.89544447  0.37991916  0.12541250     1.49700
Zn194      Zn  0.85074400  0.31601744  0.13502149     1.49400
Zn195      Zn  0.90327744  0.33658805  0.19534330     1.49100
Zn196      Zn  0.84087681  0.38229696  0.18027557     1.49500
O197        O  0.87389119  0.35205149  0.15834377    -1.83500
O198        O  0.92035814  0.33904062  0.09817655    -0.74100
O199        O  0.86389938  0.26985245  0.15639331    -0.74000
O200        O  0.94684550  0.36335108  0.18842476    -0.73500
O201        O  0.86998951  0.31203309  0.08616491    -0.74200
O202        O  0.92330446  0.41010731  0.16199886    -0.73800
O203        O  0.90843905  0.28301984  0.19239897    -0.74300
O204        O  0.86435664  0.40589993  0.22018866    -0.73700
O205        O  0.79961465  0.32581131  0.14341416    -0.74500
O206        O  0.87888287  0.35333510  0.24083594    -0.73900
O207        O  0.80526224  0.34941372  0.19744476    -0.74400
O208        O  0.81606599  0.41269564  0.14612088    -0.74300
O209        O  0.85156127  0.40273491  0.10004382    -0.74000
C210        C  0.90370992  0.31248542  0.08501418     0.77700
C211        C  0.88858855  0.26035165  0.17708694     0.78200
C212        C  0.94063939  0.39668002  0.18784139     0.77200
C213        C  0.86400123  0.38389715  0.24513689     0.77600
C214        C  0.78952037  0.32944228  0.17545837     0.78700
C215        C  0.82178655  0.41375949  0.11313123     0.77800
Zn216      Zn  0.09868142  0.63392866  0.15973933     1.49700
Zn217      Zn  0.15982715  0.61919835  0.21046746     1.49400
Zn218      Zn  0.15727474  0.57431897  0.14491220     1.49100
Zn219      Zn  0.17464777  0.65190683  0.13235968     1.49500
O220        O  0.14756305  0.62188816  0.16076892    -1.83500
O221        O  0.08352801  0.65750717  0.20478502    -0.74100
O222        O  0.18342212  0.57305969  0.22340166    -0.74000
O223        O  0.11755346  0.54638954  0.16568403    -0.73500
O224        O  0.11921432  0.63123487  0.24281981    -0.74200
O225        O  0.07460328  0.58687139  0.16088329    -0.73800
O226        O  0.20033075  0.55807966  0.16943847    -0.74300
O227        O  0.20667829  0.62106416  0.10052884    -0.73700
O228        O  0.19652021  0.65553770  0.21994467    -0.74500
O229        O  0.17634493  0.57097360  0.09533582    -0.73900
O230        O  0.20526858  0.67752704  0.16616787    -0.74400
O231        O  0.14298902  0.68770089  0.10678872    -0.74300
O232        O  0.08880922  0.67039677  0.12145927    -0.74000
C233        C  0.09270909  0.65131632  0.23633910     0.77700
C234        C  0.20550553  0.55806325  0.20233578     0.78200
C235        C  0.08929645  0.56138376  0.17771698     0.77200
C236        C  0.20366024  0.58937770  0.08831332     0.77600
C237        C  0.21188977  0.67638299  0.19906115     0.78700
C238        C  0.10933381  0.69168852  0.10547512     0.77800
C239        C  0.53687909  0.29297779  0.00379311     0.03700
C240        C  0.51522846  0.27549249  0.97998777    -0.12400
C241        C  0.49143300  0.29367275  0.95888354     0.01200
C242        C  0.49046359  0.33141695  0.96002056    -0.10900
C243        C  0.51418463  0.35067673  0.98216989     0.03700
C244        C  0.53722668  0.33066138  0.00444486    -0.10400
H245        H  0.51536780  0.24657503  0.97944044     0.09300
H246        H  0.47126174  0.34550791  0.94411468     0.06900
H247        H  0.55480206  0.34415866  0.02254535     0.06700
C248        C  0.52955685  0.69371317  0.96495312     0.03700
C249        C  0.50389667  0.71026387  0.98611356    -0.12400
C250        C  0.48179837  0.69123266  0.00786144     0.01200
C251        C  0.48587962  0.65382182  0.00892583    -0.10900
C252        C  0.51138788  0.63555532  0.98714613     0.03700
C253        C  0.53332171  0.65618624  0.96499512    -0.10400
H254        H  0.50179539  0.73911036  0.98630623     0.09300
H255        H  0.46904057  0.63910797  0.02642538     0.06900
H256        H  0.55321167  0.64335406  0.94828526     0.06700
C257        C  0.48321748  0.97024405  0.29255867     0.03700
C258        C  0.47898291  0.97315037  0.32969892    -0.12400
C259        C  0.50243195  0.99429249  0.35029840     0.01200
C260        C  0.52876293  0.01370240  0.33213390    -0.10900
C261        C  0.53263298  0.01062520  0.29503519     0.03700
C262        C  0.51034270  0.98825871  0.27627977    -0.10400
H263        H  0.45759799  0.95928974  0.34228233     0.09300
H264        H  0.54604345  0.03132377  0.34663559     0.06900
H265        H  0.51220480  0.98705687  0.24768300     0.06700
C266        C  0.20122519  0.94778405  0.99971173     0.03700
C267        C  0.22017304  0.96500566  0.97386709    -0.12400
C268        C  0.20589259  0.99416756  0.95652729     0.01200
C269        C  0.16975696  0.00373047  0.96217799    -0.10900
C270        C  0.14865852  0.98447749  0.98620220     0.03700
C271        C  0.16548259  0.95721223  0.00590125    -0.10400
H272        H  0.24815357  0.95853710  0.97067962     0.09300
H273        H  0.15863737  0.02658666  0.94890728     0.06900
H274        H  0.15107695  0.94348511  0.02615871     0.06700
C275        C  0.80924545  0.97950882  0.98813448     0.03700
C276        C  0.79423875  0.00387664  0.01183825    -0.12400
C277        C  0.81449848  0.02779318  0.03076954     0.01200
C278        C  0.85170896  0.02616471  0.02756150    -0.10900
C279        C  0.86851893  0.00094067  0.00413976     0.03700
C280        C  0.84655376  0.97778761  0.98393686    -0.10400
H281        H  0.76561100  0.00495549  0.01489960     0.09300
H282        H  0.86729953  0.04464600  0.04294478     0.06900
H283        H  0.85819895  0.95880955  0.96528643     0.06700
Zn284      Zn  0.69882075  0.86315122  0.86559138     1.49700
Zn285      Zn  0.61762734  0.85316413  0.83727501     1.49400
Zn286      Zn  0.63945014  0.86142641  0.91294288     1.49100
Zn287      Zn  0.64805945  0.92638223  0.86262909     1.49500
O288        O  0.64888151  0.87667578  0.86724875    -1.83500
O289        O  0.70470918  0.83103549  0.82432611    -0.74100
O290        O  0.58918565  0.81895153  0.86727572    -0.74000
O291        O  0.66185241  0.81394802  0.91651913    -0.73500
O292        O  0.64889088  0.82328962  0.80641497    -0.74200
O293        O  0.71559591  0.83176365  0.90489780    -0.73800
O294        O  0.58970230  0.84586961  0.91999946    -0.74300
O295        O  0.66177050  0.94543788  0.91117586    -0.73700
O296        O  0.59136714  0.88959991  0.80726631    -0.74500
O297        O  0.66805441  0.89561637  0.94220604    -0.73900
O298        O  0.60685884  0.94220083  0.83020031    -0.74400
O299        O  0.69004356  0.94010859  0.83495883    -0.74300
O300        O  0.73050628  0.90439355  0.85802059    -0.74000
C301        C  0.68202367  0.81667889  0.80432624     0.77700
C302        C  0.58172824  0.81919708  0.90022803     0.78200
C303        C  0.69468580  0.80773963  0.91471117     0.77200
C304        C  0.67800057  0.92695662  0.93453607     0.77600
C305        C  0.59030413  0.92366721  0.80687734     0.78700
C306        C  0.72220753  0.93069989  0.83893096     0.77800
C307        C  0.51456742  0.99180101  0.69207834     0.03700
C308        C  0.51698867  0.99039922  0.65475010    -0.12400
C309        C  0.49231272  0.00950564  0.63353859     0.01200
C310        C  0.46477338  0.02952211  0.65121166    -0.10900
C311        C  0.46193498  0.03001421  0.68860177     0.03700
C312        C  0.48728170  0.01154906  0.70810784    -0.10400
H313        H  0.53805164  0.97469600  0.64241024     0.09300
H314        H  0.44518884  0.04392807  0.63604364     0.06900
H315        H  0.48553127  0.01221455  0.73670789     0.06700
Zn316      Zn  0.37590262  0.11159823  0.87877167     1.49700
Zn317      Zn  0.29879677  0.12448762  0.90683691     1.49400
Zn318      Zn  0.33947344  0.18520062  0.89643910     1.49100
Zn319      Zn  0.31699003  0.14620752  0.82846260     1.49500
O320        O  0.33292131  0.14105179  0.87440262    -1.83500
O321        O  0.35540032  0.06638502  0.90447576    -0.74100
O322        O  0.26756806  0.15938225  0.93073024    -0.74000
O323        O  0.37320561  0.17717116  0.93379512    -0.73500
O324        O  0.33070393  0.10371348  0.94139086    -0.74200
O325        O  0.41269326  0.14893869  0.90056341    -0.73800
O326        O  0.29624262  0.20764668  0.91689095    -0.74300
O327        O  0.32044710  0.19886254  0.81762088    -0.73700
O328        O  0.26471723  0.09456180  0.87948434    -0.74500
O329        O  0.35668465  0.21743571  0.86044495    -0.73900
O330        O  0.26819852  0.12478197  0.82902396    -0.74400
O331        O  0.34921977  0.11864729  0.79351938    -0.74300
O332        O  0.39090784  0.09535054  0.82813628    -0.74000
C333        C  0.33192084  0.07292830  0.92817465     0.77700
C334        C  0.26962217  0.19279151  0.93018716     0.78200
C335        C  0.40433538  0.17491540  0.92177590     0.77200
C336        C  0.34144501  0.22182343  0.83098184     0.77600
C337        C  0.25261326  0.10306807  0.84939168     0.78700
C338        C  0.37743986  0.09998663  0.79750786     0.77800
Zn339      Zn  0.37714516  0.81169772  0.16624919     1.49700
Zn340      Zn  0.37711531  0.86875480  0.11601903     1.49400
Zn341      Zn  0.30912173  0.82645952  0.12804421     1.49100
Zn342      Zn  0.33792587  0.87182024  0.19132447     1.49500
O343        O  0.34839741  0.84672390  0.14839257    -1.83500
O344        O  0.40278997  0.78548263  0.12972479    -0.74100
O345        O  0.33705275  0.89039037  0.08569542    -0.74000
O346        O  0.30706708  0.77625115  0.14419548    -0.73500
O347        O  0.40450913  0.82687178  0.08888635    -0.74200
O348        O  0.34447087  0.77904774  0.18965679    -0.73800
O349        O  0.30904189  0.83920110  0.07724203    -0.74300
O350        O  0.28514037  0.88049802  0.19429867    -0.73700
O351        O  0.40636336  0.90072432  0.15188743    -0.74500
O352        O  0.26575266  0.84986875  0.14766506    -0.73900
O353        O  0.36290709  0.91703549  0.18907676    -0.74400
O354        O  0.35986015  0.84212410  0.23156727    -0.74300
O355        O  0.40773824  0.83698931  0.19931683    -0.74000
C356        C  0.41132454  0.79500842  0.09908328     0.77700
C357        C  0.31170098  0.87249158  0.07187141     0.78200
C358        C  0.31708557  0.76674932  0.17486141     0.77200
C359        C  0.26006984  0.87015262  0.17427455     0.77600
C360        C  0.39523217  0.91758652  0.17988237     0.78700
C361        C  0.39144159  0.82986933  0.22726073     0.77800
Zn362      Zn  0.65030204  0.19466543  0.12424079     1.49700
Zn363      Zn  0.62590677  0.11933493  0.11974663     1.49400
Zn364      Zn  0.68136962  0.14035645  0.17402567     1.49100
Zn365      Zn  0.60824140  0.16547416  0.18811062     1.49500
O366        O  0.64058107  0.15498802  0.15123622    -1.83500
O367        O  0.64529554  0.18068013  0.07469842    -0.74100
O368        O  0.67341423  0.09874178  0.09843819    -0.74000
O369        O  0.70474696  0.18530503  0.18798309    -0.73500
O370        O  0.59658666  0.15160979  0.08510174    -0.74200
O371        O  0.69730237  0.21115774  0.13611689    -0.73800
O372        O  0.71161662  0.11161740  0.14142201    -0.74300
O373        O  0.63268169  0.15880311  0.23550762    -0.73700
O374        O  0.60200650  0.08665387  0.15698812    -0.74500
O375        O  0.66828871  0.11492085  0.21699384    -0.73900
O376        O  0.57140672  0.12965000  0.18436007    -0.74400
O377        O  0.58843564  0.21449713  0.18300870    -0.74300
O378        O  0.61656108  0.23508520  0.13614127    -0.74000
C379        C  0.61241764  0.17725673  0.06989256     0.77700
C380        C  0.70487630  0.09792407  0.11134343     0.78200
C381        C  0.70896691  0.21129809  0.16749274     0.77200
C382        C  0.65470554  0.13363012  0.24192691     0.77600
C383        C  0.58195442  0.09742759  0.18264410     0.78700
C384        C  0.59448975  0.23928938  0.16141001     0.77800
C385        C  0.53606574  0.46776229  0.17949288     0.03700
C386        C  0.53526848  0.46788370  0.14251941    -0.12400
C387        C  0.51444380  0.49371794  0.12478617     0.01200
C388        C  0.49437202  0.51906638  0.14530078    -0.10900
C389        C  0.49640182  0.51887799  0.18248095     0.03700
C390        C  0.51772191  0.49385497  0.19867416    -0.10400
H391        H  0.55056006  0.44794113  0.12786491     0.09300
H392        H  0.47748166  0.53854386  0.13265377     0.06900
H393        H  0.51929569  0.49408321  0.22731760     0.06700
C394        C  0.81091954  0.47094786  0.48077169     0.03700
C395        C  0.84799371  0.47364728  0.48069064    -0.12400
C396        C  0.86450627  0.49845368  0.50347736     0.01200
C397        C  0.84312907  0.52110505  0.52540989    -0.10900
C398        C  0.80583856  0.51800380  0.52523486     0.03700
C399        C  0.79065055  0.49251960  0.50329511    -0.10400
H400        H  0.86376558  0.45696640  0.46288364     0.09300
H401        H  0.85535181  0.54096530  0.54218869     0.06900
H402        H  0.76201283  0.49082925  0.50193683     0.06700
Zn403      Zn  0.66351173  0.41284245  0.33965868     1.49700
Zn404      Zn  0.66016724  0.34299426  0.37836967     1.49400
Zn405      Zn  0.59552649  0.36151301  0.32972529     1.49100
Zn406      Zn  0.66608211  0.34162073  0.29711982     1.49500
O407        O  0.64523528  0.36500096  0.33701510    -1.83500
O408        O  0.67705665  0.42861664  0.38834000    -0.74100
O409        O  0.62090790  0.31842322  0.40222758    -0.74000
O410        O  0.58178553  0.41281952  0.32840903    -0.73500
O411        O  0.69181560  0.37470556  0.40684971    -0.74200
O412        O  0.62951512  0.44184301  0.31204668    -0.73800
O413        O  0.57562104  0.32649837  0.36560535    -0.74300
O414        O  0.63565349  0.34464674  0.25435578    -0.73700
O415        O  0.69133870  0.30435337  0.36310202    -0.74500
O416        O  0.58350079  0.34337401  0.28115491    -0.73900
O417        O  0.67712929  0.29127928  0.30767136    -0.74400
O418        O  0.71375649  0.36077315  0.29002079    -0.74300
O419        O  0.71147565  0.41355092  0.31707119    -0.74000
C420        C  0.69634000  0.40817811  0.40709919     0.77700
C421        C  0.58992125  0.31070656  0.39180174     0.78200
C422        C  0.59856047  0.43066152  0.30541253     0.77200
C423        C  0.60224765  0.34105149  0.25324893     0.77600
C424        C  0.69445135  0.28494315  0.33556415     0.78700
C425        C  0.72848421  0.38909381  0.30051271     0.77800
C426        C  0.51840505  0.19682436  0.45875664     0.03700
C427        C  0.51877497  0.15937784  0.46028965    -0.12400
C428        C  0.49847645  0.14197491  0.48632402     0.01200
C429        C  0.47905248  0.16324289  0.51124524    -0.10900
C430        C  0.47910622  0.20065339  0.50926800     0.03700
C431        C  0.49817880  0.21668802  0.48276219    -0.10400
H432        H  0.53488661  0.14410320  0.44160701     0.09300
H433        H  0.46419636  0.15094729  0.53211140     0.06900
H434        H  0.49877468  0.24554805  0.48187783     0.06700
C435        C  0.46821343  0.80557819  0.48195422     0.03700
C436        C  0.47019503  0.84280043  0.47819649    -0.12400
C437        C  0.49417918  0.86291981  0.49911373     0.01200
C438        C  0.51676087  0.84435657  0.52272911    -0.10900
C439        C  0.51470784  0.80709884  0.52557792     0.03700
C440        C  0.48986733  0.78862605  0.50602957    -0.10400
H441        H  0.45343226  0.85579604  0.45904561     0.09300
H442        H  0.53594455  0.85856638  0.53847623     0.06900
H443        H  0.48847217  0.75991779  0.50845233     0.06700
Zn444      Zn  0.41602691  0.64531274  0.34671279     1.49700
Zn445      Zn  0.36494537  0.58237306  0.34332036     1.49400
Zn446      Zn  0.34143833  0.65763965  0.37123043     1.49100
Zn447      Zn  0.36354920  0.64118485  0.28920448     1.49500
O448        O  0.36946390  0.63146486  0.33925629    -1.83500
O449        O  0.44438299  0.60913453  0.31878528    -0.74100
O450        O  0.33508168  0.57027255  0.38657315    -0.74000
O451        O  0.37261084  0.68854820  0.40232970    -0.73500
O452        O  0.41147230  0.56078213  0.32548121    -0.74200
O453        O  0.42583709  0.66265901  0.39604408    -0.73800
O454        O  0.30978490  0.62368863  0.39635561    -0.74300
O455        O  0.32350641  0.67477993  0.28556245    -0.73700
O456        O  0.33255015  0.56656959  0.30632393    -0.74500
O457        O  0.31138589  0.68880802  0.34194659    -0.73900
O458        O  0.34831140  0.59817430  0.26039259    -0.74400
O459        O  0.40280627  0.67084158  0.26965538    -0.74300
O460        O  0.41867214  0.69053951  0.32236592    -0.74000
C461        C  0.43606320  0.57747544  0.30958823     0.77700
C462        C  0.31018939  0.58998576  0.39999875     0.78200
C463        C  0.40568354  0.68726829  0.40919849     0.77200
C464        C  0.30645301  0.69235041  0.30898884     0.77600
C465        C  0.33027863  0.57338226  0.27383562     0.78700
C466        C  0.41327541  0.69580917  0.29001727     0.77800
C467        C  0.19778155  0.52548568  0.47717275     0.03700
C468        C  0.21711496  0.50482984  0.50053645    -0.12400
C469        C  0.20075787  0.48238900  0.52411552     0.01200
C470        C  0.16329212  0.48126131  0.52505526    -0.10900
C471        C  0.14276488  0.50332594  0.50262242     0.03700
C472        C  0.16046517  0.52535582  0.47847834    -0.10400
H473        H  0.24583256  0.50501891  0.49912081     0.09300
H474        H  0.15029785  0.46350708  0.54297949     0.06900
H475        H  0.14536709  0.54156574  0.46038087     0.06700
C476        C  0.53295322  0.52815790  0.79131250     0.03700
C477        C  0.50922942  0.50682527  0.77317267    -0.12400
C478        C  0.48762563  0.48330629  0.79044081     0.01200
C479        C  0.48966461  0.48035500  0.82739344    -0.10900
C480        C  0.51422140  0.50086821  0.84707958     0.03700
C481        C  0.53603122  0.52485978  0.82840435    -0.10400
H482        H  0.50739257  0.50854975  0.74466266     0.09300
H483        H  0.47231212  0.46214457  0.84056153     0.06900
H484        H  0.55477973  0.54119110  0.84253805     0.06700
Zn485      Zn  0.39055482  0.31563760  0.66372092     1.49700
Zn486      Zn  0.34004218  0.37890883  0.68139441     1.49400
Zn487      Zn  0.38454392  0.38066366  0.61636654     1.49100
Zn488      Zn  0.32384406  0.32953046  0.62128826     1.49500
O489        O  0.36058055  0.35126863  0.64562620    -1.83500
O490        O  0.39719887  0.32226495  0.71581724    -0.74100
O491        O  0.36689897  0.42311954  0.68904925    -0.74000
O492        O  0.41274096  0.34239731  0.58803470    -0.73500
O493        O  0.34581571  0.35084505  0.72445878    -0.74200
O494        O  0.43315107  0.31091131  0.63312129    -0.73800
O495        O  0.41225825  0.40977544  0.65327238    -0.74300
O496        O  0.30625055  0.36131397  0.58379174    -0.73700
O497        O  0.28801231  0.38291918  0.67423530    -0.74500
O498        O  0.34284192  0.40672719  0.59116090    -0.73900
O499        O  0.28413599  0.32688853  0.65566890    -0.74400
O500        O  0.33748471  0.27990082  0.60765902    -0.74300
O501        O  0.36495009  0.26992184  0.65811314    -0.74000
C502        C  0.37041133  0.33025450  0.73512806     0.77700
C503        C  0.39966479  0.42478550  0.68140820     0.78200
C504        C  0.43027853  0.31566126  0.60003183     0.77200
C505        C  0.31338566  0.39403569  0.58011653     0.77600
C506        C  0.27172648  0.35349570  0.67310568     0.78700
C507        C  0.34580523  0.25919485  0.63267766     0.77800
Zn508      Zn  0.62378428  0.62991454  0.61017762     1.49700
Zn509      Zn  0.69358508  0.67457727  0.59945052     1.49400
Zn510      Zn  0.62991946  0.70358803  0.64404492     1.49100
Zn511      Zn  0.67637348  0.64087176  0.66704408     1.49500
O512        O  0.65504225  0.66324715  0.62938113    -1.83500
O513        O  0.66120181  0.59827022  0.58349047    -0.74100
O514        O  0.69018549  0.72593962  0.58516949    -0.74000
O515        O  0.57993982  0.69389985  0.63413482    -0.73500
O516        O  0.69061035  0.64184512  0.55869360    -0.74200
O517        O  0.59109323  0.66506021  0.58393623    -0.73800
O518        O  0.64344591  0.74575915  0.61577884    -0.74300
O519        O  0.69191351  0.67968922  0.69920373    -0.73700
O520        O  0.73925145  0.66251194  0.62566704    -0.74500
O521        O  0.64388360  0.71463107  0.69296446    -0.73900
O522        O  0.71718606  0.61383897  0.64773626    -0.74400
O523        O  0.64296442  0.61097442  0.69258819    -0.74300
O524        O  0.59979158  0.60569710  0.65327240    -0.74000
C525        C  0.68778839  0.60907782  0.56560734     0.77700
C526        C  0.66861844  0.75100498  0.59424128     0.78200
C527        C  0.57638542  0.69130308  0.60086675     0.77200
C528        C  0.67355512  0.70732580  0.70727986     0.77600
C529        C  0.74333406  0.63388645  0.64299131     0.78700
C530        C  0.61232129  0.60047386  0.68426528     0.77800
C531        C  0.29837546  0.02553934  0.51703325     0.03700
C532        C  0.28057719  0.00226550  0.49477152    -0.12400
C533        C  0.29849053  0.97915033  0.47164111     0.01200
C534        C  0.33595343  0.98010181  0.46981528    -0.10900
C535        C  0.35536099  0.00349482  0.49226306     0.03700
C536        C  0.33583432  0.02595371  0.51629338    -0.10400
H537        H  0.25186405  0.00172150  0.49593240     0.09300
H538        H  0.34980718  0.96232997  0.45149059     0.06900
H539        H  0.34954297  0.04355682  0.53432996     0.06700
C540        C  0.69641440  0.97064663  0.50857907     0.03700
C541        C  0.71439415  0.99013782  0.48370531    -0.12400
C542        C  0.69750913  0.01546793  0.46332595     0.01200
C543        C  0.66001084  0.01935727  0.46572081    -0.10900
C544        C  0.63998267  0.99776654  0.48908765     0.03700
C545        C  0.65915573  0.97429995  0.51144126    -0.10400
H546        H  0.74312028  0.98822536  0.48284064     0.09300
H547        H  0.64672117  0.03913009  0.44985661     0.06900
H548        H  0.64537002  0.95921682  0.53113763     0.06700
C549        C  0.02582136  0.30316771  0.52863800     0.03700
C550        C  0.00461560  0.28413995  0.50545580    -0.12400
C551        C  0.98242832  0.30074113  0.48144474     0.01200
C552        C  0.98220425  0.33870604  0.48000951    -0.10900
C553        C  0.00356980  0.35931939  0.50365962     0.03700
C554        C  0.02552665  0.34078611  0.52782786    -0.10400
H555        H  0.00591126  0.25525781  0.50575954     0.09300
H556        H  0.96539560  0.35201480  0.46111820     0.06900
H557        H  0.04230015  0.35550871  0.54577533     0.06700
C558        C  0.03521159  0.98254708  0.19567959     0.03700
C559        C  0.03421375  0.98025018  0.15845237    -0.12400
C560        C  0.01126304  0.00310788  0.13908920     0.01200
C561        C  0.98764126  0.02621046  0.15850684    -0.10900
C562        C  0.98911637  0.02813918  0.19581636     0.03700
C563        C  0.01380268  0.00733180  0.21334786    -0.10400
H564        H  0.05067957  0.96050299  0.14485784     0.09300
H565        H  0.96817531  0.04229388  0.14488078     0.06900
H566        H  0.01385221  0.00781733  0.24203299     0.06700
C567        C  0.96946071  0.70194350  0.52738510     0.03700
C568        C  0.99193238  0.72144201  0.50606931    -0.12400
C569        C  0.01707932  0.70503578  0.48402524     0.01200
C570        C  0.01956304  0.66737417  0.48250642    -0.10900
C571        C  0.99603295  0.64645968  0.50253810     0.03700
C572        C  0.97084941  0.66426903  0.52492787    -0.10400
H573        H  0.99034492  0.75029847  0.50718606     0.09300
H574        H  0.03941196  0.65448652  0.46577499     0.06900
H575        H  0.95326242  0.64892303  0.54110753     0.06700
Zn576      Zn  0.13929962  0.80441844  0.36526433     1.49700
Zn577      Zn  0.09861258  0.84222191  0.30627033     1.49400
Zn578      Zn  0.11375830  0.88135491  0.37890111     1.49100
Zn579      Zn  0.17141232  0.86790004  0.32498599     1.49500
O580        O  0.13087866  0.84825543  0.34444712    -1.83500
O581        O  0.10552409  0.76723485  0.34814731    -0.74100
O582        O  0.05863188  0.87251484  0.32017269    -0.74000
O583        O  0.08532795  0.84586454  0.41026662    -0.73500
O584        O  0.08162667  0.79291307  0.30163239    -0.74200
O585        O  0.13167559  0.80969856  0.41673322    -0.73800
O586        O  0.08838310  0.91636563  0.34370274    -0.74300
O587        O  0.19851242  0.89543309  0.36042832    -0.73700
O588        O  0.12158883  0.85842774  0.26067918    -0.74500
O589        O  0.15885886  0.90287165  0.40356079    -0.73900
O590        O  0.15790194  0.89750154  0.28463895    -0.74400
O591        O  0.20104230  0.82728250  0.30778816    -0.74300
O592        O  0.18601977  0.78779698  0.34845233    -0.74000
C593        C  0.08575139  0.76602060  0.32109504     0.77700
C594        C  0.06819795  0.90445510  0.31918667     0.78200
C595        C  0.09938844  0.81747298  0.42318157     0.77200
C596        C  0.19037838  0.90653442  0.39128876     0.77600
C597        C  0.14445040  0.88281507  0.25755734     0.78700
C598        C  0.20435161  0.79699162  0.32190766     0.77800
Zn599      Zn  0.82198654  0.15436497  0.37888387     1.49700
Zn600      Zn  0.88783734  0.11065675  0.38223118     1.49400
Zn601      Zn  0.84166721  0.10596053  0.31377851     1.49100
Zn602      Zn  0.88331415  0.17169731  0.33134838     1.49500
O603        O  0.85838886  0.13421346  0.35157678    -1.83500
O604        O  0.81701172  0.12972698  0.42419479    -0.74100
O605        O  0.91663158  0.08417198  0.34213848    -0.74000
O606        O  0.78852143  0.10173574  0.31733329    -0.73500
O607        O  0.84740931  0.08181208  0.40709311    -0.74200
O608        O  0.77618940  0.14742515  0.35386681    -0.73800
O609        O  0.86988999  0.06135634  0.31538738    -0.74300
O610        O  0.90375922  0.15592229  0.28564567    -0.73700
O611        O  0.91274337  0.15490702  0.40933912    -0.74500
O612        O  0.85502867  0.12911112  0.26775143    -0.73900
O613        O  0.91695820  0.19258036  0.36487311    -0.74400
O614        O  0.84556999  0.20798680  0.32396697    -0.74300
O615        O  0.83521907  0.20443623  0.38079626    -0.74000
C616        C  0.81959977  0.09605862  0.42154314     0.77700
C617        C  0.90303987  0.06683741  0.31603038     0.78200
C618        C  0.76641507  0.12349323  0.33200587     0.77200
C619        C  0.88309640  0.14621508  0.26102943     0.77600
C620        C  0.92273372  0.18503149  0.39687075     0.78700
C621        C  0.82672584  0.21624944  0.35084388     0.77800
C622        C  0.03618712  0.00644726  0.80070983     0.03700
C623        C  0.03240424  0.01139116  0.83760860    -0.12400
C624        C  0.00909812  0.98981808  0.85731279     0.01200
C625        C  0.98729945  0.96561119  0.83815288    -0.10900
C626        C  0.99060087  0.96196278  0.80095758     0.03700
C627        C  0.01678213  0.98042728  0.78363058    -0.10400
H628        H  0.04732512  0.03207056  0.85070382     0.09300
H629        H  0.96740545  0.95059639  0.85177364     0.06900
H630        H  0.01905862  0.97751718  0.75513613     0.06700
Zn631      Zn  0.84471987  0.87549778  0.69623186     1.49700
Zn632      Zn  0.86900432  0.88464893  0.62229533     1.49400
Zn633      Zn  0.81169979  0.82702373  0.63973078     1.49100
Zn634      Zn  0.79166707  0.90716256  0.64970460     1.49500
O635        O  0.82907220  0.87225469  0.65039087    -1.83500
O636        O  0.89565562  0.86586834  0.69773729    -0.74100
O637        O  0.89017216  0.83670806  0.60262220    -0.74000
O638        O  0.79224839  0.80633401  0.68466352    -0.73500
O639        O  0.90303036  0.90892283  0.65977415    -0.74200
O640        O  0.81795623  0.84249242  0.72340043    -0.73800
O641        O  0.84962883  0.79644004  0.61593104    -0.74300
O642        O  0.74986485  0.88796057  0.62138024    -0.73700
O643        O  0.84184054  0.91387451  0.58368485    -0.74500
O644        O  0.77213990  0.83427169  0.60703432    -0.73900
O645        O  0.81514634  0.94527324  0.62521734    -0.74400
O646        O  0.77949173  0.92547379  0.69810052    -0.74300
O647        O  0.83418103  0.92280960  0.71858880    -0.74000
C648        C  0.91088281  0.89419260  0.68927825     0.77700
C649        C  0.87929949  0.80447763  0.60224076     0.78200
C650        C  0.79758087  0.81695449  0.71631823     0.77200
C651        C  0.74833576  0.85841877  0.60429639     0.77600
C652        C  0.81662121  0.93517696  0.59333914     0.78700
C653        C  0.80214506  0.93310996  0.72174382     0.77800
Zn654      Zn  0.18323842  0.11524415  0.67475422     1.49700
Zn655      Zn  0.11910966  0.11937553  0.62692784     1.49400
Zn656      Zn  0.11176432  0.14691776  0.70274028     1.49100
Zn657      Zn  0.15462653  0.18989413  0.64727156     1.49500
O658        O  0.14339724  0.14407198  0.66381563    -1.83500
O659        O  0.18908303  0.07515602  0.64083646    -0.74100
O660        O  0.09249246  0.08148856  0.65691870    -0.74000
O661        O  0.13071228  0.12182618  0.74597368    -0.73500
O662        O  0.16034035  0.09838360  0.59593347    -0.74200
O663        O  0.17956057  0.09709125  0.72293904    -0.73800
O664        O  0.06805672  0.12568424  0.68643546    -0.74300
O665        O  0.12821829  0.22909288  0.67511289    -0.73700
O666        O  0.09035550  0.16104189  0.60328096    -0.74500
O667        O  0.09879198  0.19572264  0.71256566    -0.73900
O668        O  0.13761657  0.19456687  0.59843278    -0.74400
O669        O  0.20685673  0.19356707  0.64615596    -0.74300
O670        O  0.22746897  0.14288811  0.66892452    -0.74000
C671        C  0.18646291  0.08008871  0.60794344     0.77700
C672        C  0.07365258  0.09273049  0.68308655     0.78200
C673        C  0.15841215  0.10221885  0.74872923     0.77200
C674        C  0.10531796  0.22569963  0.69961129     0.77600
C675        C  0.10508177  0.18953176  0.59255822     0.78700
C676        C  0.23228024  0.17289970  0.65490961     0.77800
C677        C  0.05300742  0.03210128  0.77680901    -0.04900
C678        C  0.03432486  0.06378999  0.77047219    -0.32300
C679        C  0.03972915  0.08269755  0.73944577     0.37000
C680        C  0.06448521  0.07019523  0.71368911    -0.05200
C681        C  0.08439577  0.03926545  0.72078669    -0.32200
C682        C  0.07864653  0.02018217  0.75185165     0.36900
H683        H  0.01342607  0.07255517  0.78843996     0.17200
O684        O  0.01934740  0.11262294  0.73386398    -0.59700
H685        H  0.10454006  0.02984949  0.70230879     0.17300
O686        O  0.09731265  0.98913319  0.75717772    -0.59800
H687        H  0.08642729  0.97122050  0.74128351     0.44200
H688        H  0.03007599  0.13158007  0.74860471     0.44200
C689        C  0.96518686  0.94361138  0.77714067    -0.04900
C690        C  0.94782406  0.96435110  0.75158186    -0.32300
C691        C  0.93207039  0.94882154  0.72178695     0.37000
C692        C  0.93273080  0.91164227  0.71704944    -0.05200
C693        C  0.94893856  0.89072532  0.74331875    -0.32200
C694        C  0.96552629  0.90643266  0.77278380     0.36900
H695        H  0.94806076  0.99312299  0.75393319     0.17200
O696        O  0.91577087  0.97033568  0.69769701    -0.59700
H697        H  0.94897159  0.86197257  0.74085722     0.17300
O698        O  0.98282418  0.88530691  0.79653384    -0.59800
H699        H  0.00710249  0.88206778  0.78700824     0.44200
H700        H  0.89133178  0.97414455  0.70674222     0.44200
C701        C  0.07772473  0.78980612  0.44035335    -0.04900
C702        C  0.04527897  0.78012583  0.42528613    -0.32300
C703        C  0.02685685  0.75039250  0.43722102     0.37000
C704        C  0.04069547  0.72941361  0.46460984    -0.05200
C705        C  0.07323109  0.73891505  0.47954094    -0.32200
C706        C  0.09190023  0.76842431  0.46733581     0.36900
H707        H  0.03450794  0.79518313  0.40358172     0.17200
O708        O  0.99500949  0.74213893  0.42217818    -0.59700
H709        H  0.08356290  0.72420063  0.50167571     0.17300
O710        O  0.12339189  0.77702930  0.48292813    -0.59800
H711        H  0.14122475  0.76045126  0.47216891     0.44200
H712        H  0.97727351  0.75771331  0.43445557     0.44200
C713        C  0.90164074  0.77556339  0.58572848    -0.04900
C714        C  0.93844247  0.77589591  0.59007470    -0.32300
C715        C  0.96027049  0.74972990  0.57403282     0.37000
C716        C  0.94575499  0.72294608  0.55201677    -0.05200
C717        C  0.90878391  0.72161048  0.54882294    -0.32200
C718        C  0.88676787  0.74751232  0.56559999     0.36900
H719        H  0.95042178  0.79668007  0.60592374     0.17200
O720        O  0.99618739  0.75156928  0.57865671    -0.59700
H721        H  0.89705609  0.70170399  0.53171753     0.17300
O722        O  0.85086369  0.74613083  0.56071612    -0.59800
H723        H  0.84631903  0.75905551  0.53856418     0.44200
H724        H  0.00161123  0.73502199  0.59808106     0.44200
C725        C  0.96275276  0.04647303  0.21935424    -0.04900
C726        C  0.93031722  0.02982588  0.22491115    -0.32300
C727        C  0.91116335  0.03537664  0.25646040     0.37000
C728        C  0.92423405  0.05811383  0.28347511    -0.05200
C729        C  0.95562394  0.07644690  0.27684814    -0.32200
C730        C  0.97472387  0.07080552  0.24529582     0.36900
H731        H  0.92119661  0.01014706  0.20595523     0.17200
O732        O  0.88012574  0.01756076  0.26087576    -0.59700
H733        H  0.96563335  0.09516327  0.29626803     0.17300
O734        O  0.00627742  0.08771052  0.24071310    -0.59800
H735        H  0.02351747  0.07497345  0.25582656     0.44200
H736        H  0.88713854  0.99444426  0.27118415     0.44200
C737        C  0.05219464  0.95618472  0.21905290    -0.04900
C738        C  0.03142495  0.92743238  0.22877807    -0.32300
C739        C  0.03541450  0.91169536  0.26174882     0.37000
C740        C  0.06131080  0.92395469  0.28584439    -0.05200
C741        C  0.08377167  0.95119363  0.27506040    -0.32200
C742        C  0.07937908  0.96717636  0.24202886     0.36900
H743        H  0.00953670  0.91945819  0.21218168     0.17200
O744        O  0.01288034  0.88497697  0.27050561    -0.59700
H745        H  0.10471379  0.96023534  0.29227844     0.17300
O746        O  0.09980958  0.99562384  0.23364601    -0.59800
H747        H  0.11779132  0.98596357  0.21676771     0.44200
H748        H  0.99300825  0.89698862  0.28335771     0.44200
C749        C  0.04868546  0.28099666  0.55161620    -0.04900
C750        C  0.08333941  0.27290611  0.54043579    -0.32300
C751        C  0.10140536  0.24259995  0.55265184     0.37000
C752        C  0.08480111  0.21933018  0.57633428    -0.05200
C753        C  0.05067445  0.22829582  0.58865467    -0.32200
C754        C  0.03272200  0.25876398  0.57653265     0.36900
H755        H  0.09560696  0.28885022  0.52038941     0.17200
O756        O  0.13509730  0.23550964  0.54053793    -0.59700
H757        H  0.03795504  0.21182981  0.60797255     0.17300
O758        O  0.99892683  0.26610522  0.58821842    -0.59800
H759        H  0.98360553  0.24970741  0.57467382     0.44200
H760        H  0.13211211  0.22025657  0.51920913     0.44200
C761        C  0.96186244  0.27570448  0.45821030    -0.04900
C762        C  0.97237339  0.26988978  0.42303886    -0.32300
C763        C  0.96103201  0.23985519  0.40354537     0.37000
C764        C  0.93898377  0.21409424  0.41908990    -0.05200
C765        C  0.92816961  0.22012345  0.45419602    -0.32200
C766        C  0.93941459  0.25030998  0.47359939     0.36900
H767        H  0.99087746  0.28781960  0.41105610     0.17200
O768        O  0.97296630  0.23517006  0.36952333    -0.59700
H769        H  0.91043877  0.20169651  0.46656346     0.17300
O770        O  0.92872103  0.25465396  0.50806316    -0.59800
H771        H  0.94245947  0.23672947  0.52140208     0.44200
H772        H  0.95854102  0.25189128  0.35529561     0.44200
C773        C  0.71978042  0.95255331  0.53436693    -0.04900
C774        C  0.74604928  0.92855793  0.52139597    -0.32300
C775        C  0.77817211  0.92337166  0.53936249     0.37000
C776        C  0.78446869  0.94184345  0.57133662    -0.05200
C777        C  0.75702753  0.96397804  0.58531790    -0.32200
C778        C  0.72505510  0.96912001  0.56736192     0.36900
H779        H  0.74286722  0.91617369  0.49560302     0.17200
O780        O  0.80325480  0.90055959  0.52509542    -0.59700
H781        H  0.76044257  0.97797094  0.61026140     0.17300
O782        O  0.70067891  0.99336157  0.58056631    -0.59800
H783        H  0.68408982  0.97923233  0.59473216     0.44200
H784        H  0.81809669  0.91552944  0.50987530     0.44200
C785        C  0.72232802  0.03977795  0.44497101    -0.04900
C786        C  0.74801657  0.02474082  0.42171938    -0.32300
C787        C  0.78030787  0.04173029  0.41504979     0.37000
C788        C  0.78762625  0.07491900  0.43122807    -0.05200
C789        C  0.76107465  0.09071221  0.45298705    -0.32200
C790        C  0.72906386  0.07346899  0.46000861     0.36900
H791        H  0.74404316  0.99835753  0.41062493     0.17200
O792        O  0.80425460  0.02571823  0.39232650    -0.59700
H793        H  0.76540440  0.11646785  0.46532052     0.17300
O794        O  0.70597034  0.08837162  0.48425836    -0.59800
H795        H  0.68779290  0.10092456  0.47011311     0.44200
H796        H  0.81858155  0.00948174  0.40712729     0.44200
C797        C  0.21612263  0.06682719  0.58476937    -0.04900
C798        C  0.22096528  0.08106888  0.55110394    -0.32300
C799        C  0.25018502  0.07069522  0.53000416     0.37000
C800        C  0.27564977  0.04606011  0.54247542    -0.05200
C801        C  0.27158758  0.03284199  0.57650560    -0.32200
C802        C  0.24237811  0.04294875  0.59758130     0.36900
H803        H  0.20198436  0.10018223  0.54093974     0.17200
O804        O  0.25316208  0.08389445  0.49663356    -0.59700
H805        H  0.28996625  0.01276003  0.58597239     0.17300
O806        O  0.23898772  0.02783245  0.63007431    -0.59800
H807        H  0.25458986  0.04171776  0.64591868     0.44200
H808        H  0.23644267  0.06999133  0.48200006     0.44200
C809        C  0.27585573  0.95518987  0.44993190    -0.04900
C810        C  0.25111800  0.93366524  0.46712075    -0.32300
C811        C  0.22295292  0.91804370  0.44869985     0.37000
C812        C  0.21899500  0.92361239  0.41230822    -0.05200
C813        C  0.24463904  0.94385358  0.39486850    -0.32200
C814        C  0.27246629  0.95993546  0.41341030     0.36900
H815        H  0.25282856  0.93022949  0.49539156     0.21600
O816        O  0.19946735  0.89748711  0.46656043    -0.59700
H817        H  0.24244503  0.94821185  0.36677912     0.17300
O818        O  0.29503110  0.98179723  0.39591808    -0.59800
H819        H  0.28388835  0.00583688  0.39770371     0.44200
H820        H  0.21048698  0.87335688  0.46672239     0.44200
C821        C  0.71664501  0.84836842  0.58447464    -0.04900
C822        C  0.68504929  0.84812839  0.60383618    -0.32300
C823        C  0.66465970  0.81734838  0.60365188     0.37000
C824        C  0.67567753  0.78763924  0.58270301    -0.05200
C825        C  0.70125509  0.79259917  0.55635953    -0.32200
C826        C  0.72134177  0.82341604  0.55661965     0.36900
H827        H  0.68001688  0.86822107  0.62417429     0.17200
O828        O  0.63730458  0.81496924  0.62738603    -0.59700
H829        H  0.70895466  0.77084548  0.53867485     0.17300
O830        O  0.75058261  0.82472756  0.53514726    -0.59800
H831        H  0.74470504  0.84303180  0.51749412     0.44200
H832        H  0.64857983  0.81179996  0.65062570     0.44200
C833        C  0.32756376  0.22504955  0.63520343    -0.04900
C834        C  0.30636833  0.21446967  0.60672293    -0.32300
C835        C  0.27622229  0.19467470  0.61261737     0.37000
C836        C  0.26806551  0.18403734  0.64696897    -0.05200
C837        C  0.29243479  0.18891312  0.67416024    -0.32200
C838        C  0.32239494  0.20932624  0.66847460     0.36900
H839        H  0.31058577  0.22512480  0.58069046     0.17200
O840        O  0.25356508  0.18784932  0.58517806    -0.59700
H841        H  0.28652310  0.17998020  0.70053252     0.17300
O842        O  0.34341709  0.21760098  0.69676453    -0.59800
H843        H  0.36378925  0.20067979  0.69503386     0.44200
H844        H  0.23958150  0.21012735  0.58218623     0.44200
C845        C  0.55422458  0.55223694  0.76906970    -0.04900
C846        C  0.53651744  0.57324865  0.74389505    -0.32300
C847        C  0.55473171  0.58821494  0.71561812     0.37000
C848        C  0.59154410  0.58301859  0.71230224    -0.05200
C849        C  0.60951130  0.56361396  0.73848083    -0.32200
C850        C  0.59114312  0.54793346  0.76631674     0.36900
H851        H  0.50798363  0.57652472  0.74521615     0.17200
O852        O  0.53621907  0.60770238  0.69137934    -0.59700
H853        H  0.63795017  0.55970247  0.73681142     0.17300
O854        O  0.60930554  0.52694044  0.78955161    -0.59800
H855        H  0.60904922  0.50265179  0.77895523     0.44200
H856        H  0.53731791  0.63269729  0.70004555     0.44200
C857        C  0.46282232  0.46358951  0.76766062    -0.04900
C858        C  0.47682864  0.43802394  0.74375753    -0.32300
C859        C  0.45743043  0.42671922  0.71430112     0.37000
C860        C  0.42316276  0.44081744  0.70838061    -0.05200
C861        C  0.40902111  0.46602993  0.73270896    -0.32200
C862        C  0.42863908  0.47757644  0.76190715     0.36900
H863        H  0.50364793  0.42800480  0.74712632     0.17200
O864        O  0.47178622  0.40097118  0.69223941    -0.59700
H865        H  0.38260985  0.47697236  0.72899533     0.17300
O866        O  0.41513041  0.50428697  0.78334592    -0.59800
H867        H  0.40388921  0.49199578  0.80330236     0.44200
H868        H  0.48596483  0.41404748  0.67481160     0.44200
C869        C  0.22501599  0.45872437  0.54426433    -0.04900
C870        C  0.25259816  0.47412712  0.56390433    -0.32300
C871        C  0.28224352  0.45394960  0.57438042     0.37000
C872        C  0.28479245  0.41738503  0.56560322    -0.05200
C873        C  0.25656823  0.40183537  0.54691472    -0.32200
C874        C  0.22705840  0.42211505  0.53629476     0.36900
H875        H  0.25186985  0.50245692  0.56971633     0.17200
O876        O  0.30804582  0.47015122  0.59393497    -0.59700
H877        H  0.25744953  0.37371840  0.54016113     0.17300
O878        O  0.20161726  0.40639014  0.51591376    -0.59800
H879        H  0.18400151  0.39745359  0.53292481     0.44200
H880        H  0.32433963  0.48038904  0.57640166     0.44200
C881        C  0.22887952  0.77058381  0.30711312    -0.04900
C882        C  0.21893671  0.73489671  0.30868002    -0.32300
C883        C  0.24410581  0.70806308  0.30449405     0.37000
C884        C  0.27928533  0.71709103  0.29841601    -0.05200
C885        C  0.28839960  0.75221675  0.29145266    -0.32200
C886        C  0.26303808  0.77936125  0.29573762     0.36900
H887        H  0.19220544  0.72791429  0.31603211     0.17200
O888        O  0.23504151  0.67355624  0.31077429    -0.59700
H889        H  0.31564662  0.75888997  0.28613151     0.17300
O890        O  0.27260026  0.81413864  0.29197808    -0.59800
H891        H  0.28428567  0.82083872  0.31443852     0.44200
H892        H  0.23179333  0.66250995  0.28710496     0.44200
C893        C  0.27941029  0.57377063  0.41808876    -0.04900
C894        C  0.25707133  0.59497274  0.44010274    -0.32300
C895        C  0.22725564  0.58063714  0.45655592     0.37000
C896        C  0.21900260  0.54470147  0.45091734    -0.05200
C897        C  0.23975375  0.52422329  0.42705937    -0.32200
C898        C  0.26969952  0.53830433  0.41087441     0.36900
H899        H  0.26325805  0.62257303  0.44541004     0.17200
O900        O  0.20800968  0.60116962  0.48019668    -0.59700
H901        H  0.23403991  0.49632022  0.42282482     0.17300
O902        O  0.28899491  0.51716944  0.38776951    -0.59800
H903        H  0.30480421  0.50257477  0.40275987     0.44200
H904        H  0.18918092  0.61265729  0.46600578     0.44200
C905        C  0.53784028  0.78481024  0.54776517    -0.04900
C906        C  0.52670411  0.77791955  0.58220648    -0.32300
C907        C  0.53842692  0.74724716  0.59949695     0.37000
C908        C  0.56125511  0.72236928  0.58208899    -0.05200
C909        C  0.57366320  0.73021362  0.54817326    -0.32200
C910        C  0.56216236  0.76106636  0.53108407     0.36900
H911        H  0.50691944  0.79508895  0.59482798     0.17200
O912        O  0.52579110  0.74087101  0.63271539    -0.59700
H913        H  0.59232366  0.71238506  0.53477176     0.17300
O914        O  0.57330797  0.76696620  0.49721676    -0.59800
H915        H  0.55789973  0.75224939  0.48193605     0.44200
H916        H  0.54025562  0.75574701  0.64878314     0.44200
C917        C  0.44756922  0.78151657  0.45900165    -0.04900
C918        C  0.46582608  0.76400848  0.43132034    -0.32300
C919        C  0.45333991  0.73229441  0.41649541     0.37000
C920        C  0.42135211  0.71781740  0.42850944    -0.05200
C921        C  0.40228471  0.73603976  0.45538800    -0.32200
C922        C  0.41561337  0.76715809  0.47117118     0.36900
H923        H  0.49120485  0.77378629  0.42270277     0.17200
O924        O  0.47225316  0.71616530  0.38952978    -0.59700
H925        H  0.37745249  0.72563432  0.46473730     0.17300
O926        O  0.39855138  0.78193107  0.50001451    -0.59800
H927        H  0.38485756  0.80246643  0.49084124     0.44200
H928        H  0.49016872  0.70090318  0.40126826     0.44200
C929        C  0.46201637  0.22519236  0.53526940    -0.04900
C930        C  0.43684789  0.24991386  0.52303628    -0.32300
C931        C  0.42779893  0.28049931  0.54286340     0.37000
C932        C  0.44366024  0.28677044  0.57598733    -0.05200
C933        C  0.46828334  0.26143740  0.58856460    -0.32200
C934        C  0.47757726  0.23102035  0.56843321     0.36900
H935        H  0.42540078  0.24627829  0.49707401     0.17200
O936        O  0.40260381  0.30346044  0.52996856    -0.59700
H937        H  0.48054376  0.26527673  0.61410480     0.17300
O938        O  0.50364777  0.20845633  0.58030700    -0.59800
H939        H  0.49098417  0.18948940  0.59275470     0.44200
H940        H  0.41551105  0.31900709  0.51363602     0.44200
C941        C  0.72276729  0.25842396  0.33567073    -0.04900
C942        C  0.73232156  0.24462580  0.36834249    -0.32300
C943        C  0.76635694  0.23178666  0.37393719     0.37000
C944        C  0.79134803  0.23181804  0.34611896    -0.05200
C945        C  0.78076624  0.24284028  0.31250101    -0.32200
C946        C  0.74663275  0.25624579  0.30720898     0.36900
H947        H  0.71410223  0.24641316  0.39050403     0.17200
O948        O  0.77507768  0.22056747  0.40710775    -0.59700
H949        H  0.79916760  0.24201308  0.29049153     0.17300
O950        O  0.73767814  0.26959231  0.27496781    -0.59800
H951        H  0.74775574  0.29370624  0.27451275     0.44200
H952        H  0.76572720  0.19617185  0.40867005     0.44200
C953        C  0.57208019  0.28004264  0.40838530    -0.04900
C954        C  0.54191024  0.26527923  0.39254653    -0.32300
C955        C  0.52642875  0.23464093  0.40604701     0.37000
C956        C  0.54117166  0.21785047  0.43558834    -0.05200
C957        C  0.57208849  0.23151891  0.45045608    -0.32200
C958        C  0.58730768  0.26237093  0.43751097     0.36900
H959        H  0.52997704  0.27766743  0.36980841     0.17200
O960        O  0.49536882  0.22279400  0.39184996    -0.59700
H961        H  0.58286226  0.21984015  0.47414433     0.17300
O962        O  0.61665365  0.27532982  0.45424033    -0.59800
H963        H  0.60729972  0.29148074  0.47315397     0.44200
H964        H  0.50263389  0.20615509  0.37246290     0.44200
C965        C  0.78049181  0.54287731  0.54354917    -0.04900
C966        C  0.75077097  0.52868490  0.56061745    -0.32300
C967        C  0.71999737  0.54924019  0.56685276     0.37000
C968        C  0.71861633  0.58515274  0.55686715    -0.05200
C969        C  0.74937313  0.59989706  0.54210295    -0.32200
C970        C  0.77997699  0.57919385  0.53556355     0.36900
H971        H  0.75055233  0.50067074  0.56687420     0.17200
O972        O  0.69140798  0.53367997  0.58229189    -0.59700
H973        H  0.74977019  0.62769257  0.53510518     0.17300
O974        O  0.80810645  0.59408302  0.51868318    -0.59800
H975        H  0.82240451  0.60502402  0.53773861     0.44200
H976        H  0.67722823  0.52420658  0.56240496     0.44200
C977        C  0.79050774  0.44895203  0.45589169    -0.04900
C978        C  0.77536155  0.41776422  0.46842353    -0.32300
C979        C  0.74437386  0.40439978  0.45331293     0.37000
C980        C  0.72764510  0.42266204  0.42553758    -0.05200
C981        C  0.74405441  0.45276908  0.41183526    -0.32200
C982        C  0.77528481  0.46569903  0.42656498     0.36900
H983        H  0.78608276  0.40528671  0.49171226     0.17200
O984        O  0.73007282  0.37418311  0.46674168    -0.59700
H985        H  0.73258769  0.46649899  0.38961491     0.17300
O986        O  0.78877324  0.49686522  0.41441944    -0.59800
H987        H  0.80968959  0.48963494  0.39999059     0.44200
H988        H  0.71272312  0.38269880  0.48479956     0.44200
C989        C  0.45148467  0.56244775  0.27605680    -0.04900
C990        C  0.48004315  0.57951324  0.25979864    -0.32300
C991        C  0.49202497  0.56903457  0.22601457     0.37000
C992        C  0.47526816  0.54135970  0.20734122    -0.05200
C993        C  0.44565134  0.52563616  0.22263085    -0.32200
C994        C  0.43398250  0.53554677  0.25660652     0.36900
H995        H  0.49352779  0.60084034  0.27349270     0.17200
O996        O  0.52206627  0.58387977  0.21272215    -0.59700
H997        H  0.43331671  0.50332737  0.20933319     0.17300
O998        O  0.40516190  0.51880420  0.27026197    -0.59800
H999        H  0.41480230  0.49683121  0.28098552     0.44200
H1000       H  0.51350661  0.60234752  0.19630330     0.44200
C1001       C  0.55665983  0.44265830  0.20086808    -0.04900
C1002       C  0.59179618  0.45148382  0.20755483    -0.32300
C1003       C  0.60611150  0.44710319  0.24121584     0.37000
C1004       C  0.58505869  0.43340068  0.26875996    -0.05200
C1005       C  0.55176636  0.41973546  0.26020843    -0.32200
C1006       C  0.53794715  0.42343193  0.22629335     0.36900
H1007       H  0.60664908  0.46597914  0.18813925     0.17200
O1008       O  0.64024251  0.45755394  0.24701564    -0.59700
H1009       H  0.53570162  0.40743377  0.28016910     0.17300
O1010       O  0.50367887  0.41374438  0.22004349    -0.59800
H1011       H  0.50542355  0.38884762  0.21115133     0.44200
H1012       H  0.63863654  0.48363097  0.25126917     0.44200
C1013       C  0.66988768  0.12908569  0.27716604    -0.04900
C1014       C  0.68377592  0.09539906  0.28556481    -0.32300
C1015       C  0.71369407  0.09242139  0.30694457     0.37000
C1016       C  0.72918946  0.12338110  0.32075032    -0.05200
C1017       C  0.71121146  0.15616354  0.31767989    -0.32200
C1018       C  0.68162819  0.15924721  0.29594241     0.36900
H1019       H  0.67428168  0.07181939  0.27200567     0.17200
O1020       O  0.72892739  0.05956081  0.31226664    -0.59700
H1021       H  0.72248352  0.18016897  0.32861222     0.17300
O1022       O  0.66861958  0.19256642  0.28856016    -0.59800
H1023       H  0.64920413  0.19697271  0.30583592     0.44200
H1024       H  0.74110851  0.05305380  0.28980413     0.44200
C1025       C  0.58003011  0.27511717  0.16976622    -0.04900
C1026       C  0.60163315  0.30415879  0.16258874    -0.32300
C1027       C  0.60500798  0.33131862  0.18796568     0.37000
C1028       C  0.58597750  0.32929513  0.21985195    -0.05200
C1029       C  0.55721035  0.30623246  0.22156770    -0.32200
C1030       C  0.55390645  0.27911188  0.19623881     0.36900
H1031       H  0.62034396  0.30287783  0.14085010     0.17200
O1032       O  0.62985855  0.35707094  0.18340875    -0.59700
H1033       H  0.54081291  0.30552081  0.24504807     0.17300
O1034       O  0.52956051  0.25306330  0.20154146    -0.59800
H1035       H  0.51198383  0.25600467  0.18242691     0.44200
H1036       H  0.65308845  0.34496047  0.18658761     0.44200
C1037       C  0.22338271  0.88019828  0.18346345    -0.04900
C1038       C  0.21655760  0.91258731  0.20115556    -0.32300
C1039       C  0.18535997  0.91755072  0.22064134     0.37000
C1040       C  0.16149422  0.88925701  0.22330084    -0.05200
C1041       C  0.16497486  0.86022897  0.19967428    -0.32200
C1042       C  0.19593453  0.85547528  0.17975312     0.36900
H1043       H  0.23669506  0.93274758  0.20248571     0.17200
O1044       O  0.18034949  0.94828212  0.24029005    -0.59700
H1045       H  0.14647259  0.83854898  0.20053689     0.17300
O1046       O  0.20108783  0.82417296  0.16117489    -0.59800
H1047       H  0.19192984  0.82892036  0.13720835     0.44200
H1048       H  0.19891950  0.94791398  0.25876676     0.44200
C1049       C  0.41421483  0.73234276  0.27768418    -0.04900
C1050       C  0.43128031  0.73998803  0.24621520    -0.32300
C1051       C  0.42763898  0.77364383  0.23174309     0.37000
C1052       C  0.40476698  0.79961464  0.24792509    -0.05200
C1053       C  0.38946605  0.79243686  0.28064055    -0.32200
C1054       C  0.39467066  0.75924195  0.29592669     0.36900
H1055       H  0.44659058  0.71950801  0.23227910     0.17200
O1056       O  0.44382726  0.77942924  0.19995688    -0.59700
H1057       H  0.37186077  0.81178442  0.29339950     0.17300
O1058       O  0.37750785  0.75214170  0.32691890    -0.59800
H1059       H  0.39414104  0.75920098  0.34579942     0.44200
H1060       H  0.46780116  0.78788605  0.20600892     0.44200
C1061       C  0.21922112  0.08860442  0.83708055    -0.04900
C1062       C  0.22083083  0.06172684  0.81123174    -0.32300
C1063       C  0.19583321  0.06130641  0.78419152     0.37000
C1064       C  0.16957368  0.08844985  0.78313899    -0.05200
C1065       C  0.16360702  0.10992236  0.81327241    -0.32200
C1066       C  0.18849768  0.11001419  0.84043651     0.36900
H1067       H  0.24401012  0.04442101  0.80910502     0.17200
O1068       O  0.19987542  0.03732652  0.75665228    -0.59700
H1069       H  0.14297362  0.13030000  0.81346234     0.17300
O1070       O  0.18568350  0.13529559  0.86680712    -0.59800
H1071       H  0.17595551  0.12260797  0.88728913     0.44200
H1072       H  0.22172633  0.04422120  0.74404226     0.44200
C1073       C  0.34874620  0.25413313  0.81179960    -0.04900
C1074       C  0.38389598  0.26478412  0.80745959    -0.32300
C1075       C  0.39178177  0.29261076  0.78497530     0.37000
C1076       C  0.36413660  0.31042843  0.76745061    -0.05200
C1077       C  0.32882988  0.30257477  0.77569069    -0.32200
C1078       C  0.32104763  0.27398879  0.79695467     0.36900
H1079       H  0.40534791  0.25005871  0.81968669     0.17200
O1080       O  0.42647765  0.30062094  0.77863052    -0.59700
H1081       H  0.30709060  0.31655513  0.76320246     0.17300
O1082       O  0.28643022  0.26463512  0.80170758    -0.59800
H1083       H  0.27839542  0.27798746  0.82314607     0.44200
H1084       H  0.43092440  0.32228259  0.79313867     0.44200
C1085       C  0.43309860  0.04857560  0.70959395    -0.04900
C1086       C  0.41415036  0.02865076  0.73431158    -0.32300
C1087       C  0.39548709  0.04521699  0.76238091     0.37000
C1088       C  0.39451135  0.08251207  0.76596627    -0.05200
C1089       C  0.41089589  0.10270901  0.73974215    -0.32200
C1090       C  0.43032089  0.08601901  0.71190709     0.36900
H1091       H  0.41588669  0.99984932  0.73321810     0.17200
O1092       O  0.37858186  0.02462461  0.78651680    -0.59700
H1093       H  0.41019747  0.13148228  0.74187705     0.17300
O1094       O  0.44901001  0.10651971  0.68908849    -0.59800
H1095       H  0.43295206  0.11034572  0.66881136     0.44200
H1096       H  0.39671537  0.01898767  0.80452323     0.44200
C1097       C  0.79001984  0.94867551  0.75550006    -0.04900
C1098       C  0.80485763  0.93502470  0.78646265    -0.32300
C1099       C  0.78470406  0.93405857  0.81729253     0.37000
C1100       C  0.74949941  0.94710451  0.81695145    -0.05200
C1101       C  0.73830103  0.96816934  0.78867276    -0.32200
C1102       C  0.75814675  0.96838119  0.75755671     0.36900
H1103       H  0.82994513  0.92060995  0.78560736     0.17200
O1104       O  0.79779751  0.91569163  0.84549192    -0.59700
H1105       H  0.71205078  0.98023140  0.78858256     0.17300
O1106       O  0.74469515  0.98489064  0.72837497    -0.59800
H1107       H  0.72506029  0.96977995  0.72003970     0.44200
H1108       H  0.80354734  0.93415701  0.86344771     0.44200
C1109       C  0.68750290  0.73380557  0.73133048    -0.04900
C1110       C  0.68849711  0.76877739  0.71926642    -0.32300
C1111       C  0.69108040  0.79693466  0.74314579     0.37000
C1112       C  0.69350007  0.78978338  0.77911269    -0.05200
C1113       C  0.69717747  0.75473384  0.79079124    -0.32200
C1114       C  0.69423865  0.72640333  0.76678740     0.36900
H1115       H  0.68426194  0.77432139  0.69162374     0.17200
O1116       O  0.68836207  0.83125594  0.73157212    -0.59700
H1117       H  0.69875811  0.74939853  0.81875264     0.17300
O1118       O  0.69354215  0.69219396  0.77869106    -0.59800
H1119       H  0.71875193  0.68497617  0.78133150     0.44200
H1120       H  0.66266120  0.83595056  0.72855597     0.44200
C1121       C  0.57145323  0.94149358  0.77686638    -0.04900
C1122       C  0.54892456  0.92163527  0.75467941    -0.32300
C1123       C  0.53255503  0.93688545  0.72509252     0.37000
C1124       C  0.53886783  0.97247800  0.71643209    -0.05200
C1125       C  0.56185215  0.99218507  0.73800695    -0.32200
C1126       C  0.57827699  0.97704744  0.76760252     0.36900
H1127       H  0.54343005  0.89418344  0.76055476     0.17200
O1128       O  0.50927624  0.91713848  0.70556539    -0.59700
H1129       H  0.56612801  0.01998026  0.73253937     0.17300
O1130       O  0.60078071  0.99750237  0.78732109    -0.59800
H1131       H  0.62444501  0.99360515  0.77638004     0.44200
H1132       H  0.48581018  0.92171228  0.71669648     0.44200
C1133       C  0.73508251  0.08192820  0.09126254    -0.04900
C1134       C  0.73988609  0.09004820  0.05566516    -0.32300
C1135       C  0.76924740  0.07646189  0.03680412     0.37000
C1136       C  0.79405166  0.05356100  0.05316591    -0.05200
C1137       C  0.79012739  0.04676588  0.08918617    -0.32200
C1138       C  0.76106112  0.06091195  0.10826225     0.36900
H1139       H  0.72073904  0.10685302  0.04239008     0.17200
O1140       O  0.77182521  0.08302940  0.00141252    -0.59700
H1141       H  0.80811269  0.02829828  0.10189522     0.17300
O1142       O  0.75735425  0.05256945  0.14314881    -0.59800
H1143       H  0.74256744  0.03102287  0.14322489     0.44200
H1144       H  0.78974492  0.10184429  0.99950184     0.44200
C1145       C  0.78291040  0.95886743  0.96775039    -0.04900
C1146       C  0.76569246  0.93110137  0.98482000    -0.32300
C1147       C  0.73113109  0.92135137  0.97549822     0.37000
C1148       C  0.71271459  0.93955574  0.94859163    -0.05200
C1149       C  0.73070587  0.96637967  0.93063547    -0.32200
C1150       C  0.76526509  0.97588066  0.93987297     0.36900
H1151       H  0.77808068  0.91874235  0.00735632     0.17200
O1152       O  0.71545682  0.89444678  0.99349216    -0.59700
H1153       H  0.71798820  0.98020825  0.90916210     0.17300
O1154       O  0.78031146  0.00432506  0.92375826    -0.59800
H1155       H  0.79701785  0.99374557  0.90610648     0.44200
H1156       H  0.70324170  0.90631149  0.01380686     0.44200
C1157       C  0.22247364  0.92469467  0.02300006    -0.04900
C1158       C  0.23481888  0.89156820  0.00995420    -0.32300
C1159       C  0.26412977  0.87443827  0.02524196     0.37000
C1160       C  0.28225270  0.89087260  0.05345175    -0.05200
C1161       C  0.26917661  0.92351470  0.06712857    -0.32200
C1162       C  0.23941984  0.94020745  0.05235542     0.36900
H1163       H  0.22286641  0.87990125  0.98663423     0.17200
O1164       O  0.27555994  0.84220159  0.01163212    -0.59700
H1165       H  0.28197674  0.93607401  0.08951950     0.17300
O1166       O  0.22878192  0.97309886  0.06500470    -0.59800
H1167       H  0.20848722  0.96853341  0.08084845     0.44200
H1168       H  0.29339316  0.84797063  0.99345216     0.44200
C1169       C  0.29975745  0.05091941  0.93368823    -0.04900
C1170       C  0.27426401  0.06404020  0.95823887    -0.32300
C1171       C  0.24111390  0.04869622  0.96170519     0.37000
C1172       C  0.23269390  0.01831226  0.94172274    -0.05200
C1173       C  0.25754338  0.00530417  0.91644661    -0.32200
C1174       C  0.29065443  0.02157709  0.91206439     0.36900
H1175       H  0.27980723  0.08684472  0.97505577     0.17200
O1176       O  0.21841909  0.06158603  0.98739823    -0.59700
H1177       H  0.25194604  0.98129521  0.90141727     0.17300
O1178       O  0.31353432  0.00875271  0.88654136    -0.59800
H1179       H  0.32835475  0.99056846  0.89840985     0.44200
H1180       H  0.20343667  0.07963816  0.97554144     0.44200
C1181       C  0.55506640  0.03390827  0.27308605    -0.04900
C1182       C  0.57469428  0.01852525  0.24474628    -0.32300
C1183       C  0.58373562  0.03841884  0.21505634     0.37000
C1184       C  0.57346799  0.07454910  0.21333279    -0.05200
C1185       C  0.55700614  0.09051252  0.24334414    -0.32200
C1186       C  0.54805890  0.07067535  0.27290352     0.36900
H1187       H  0.58043982  0.99018279  0.24437031     0.17200
O1188       O  0.60164530  0.02193709  0.18764003    -0.59700
H1189       H  0.55006574  0.11858433  0.24377220     0.17300
O1190       O  0.52921542  0.08688341  0.29985713    -0.59800
H1191       H  0.54731607  0.09594261  0.31641383     0.44200
H1192       H  0.58301729  0.01228739  0.17199794     0.44200
C1193       C  0.45813548  0.95275411  0.26789394    -0.04900
C1194       C  0.42695261  0.97117846  0.25899372    -0.32300
C1195       C  0.40789286  0.96193414  0.22855649     0.37000
C1196       C  0.41970030  0.93363002  0.20612738    -0.05200
C1197       C  0.45103297  0.91529813  0.21493939    -0.32200
C1198       C  0.47022894  0.92477150  0.24530987     0.36900
H1199       H  0.41823180  0.99397274  0.27483196     0.17200
O1200       O  0.37746856  0.98068917  0.22104568    -0.59700
H1201       H  0.46008820  0.89276342  0.19893042     0.17300
O1202       O  0.50110912  0.90673086  0.25270161    -0.59800
H1203       H  0.51919058  0.91681361  0.23687650     0.44200
H1204       H  0.38500049  0.99989178  0.20520816     0.44200
C1205       C  0.56944571  0.78552316  0.91619207    -0.04900
C1206       C  0.55117099  0.76017132  0.89573418    -0.32300
C1207       C  0.54183138  0.72716456  0.90977669     0.37000
C1208       C  0.55147173  0.71850774  0.94446167    -0.05200
C1209       C  0.57215142  0.74262864  0.96379145    -0.32200
C1210       C  0.58069062  0.77587132  0.95027350     0.36900
H1211       H  0.54323342  0.76635115  0.86907684     0.17200
O1212       O  0.52079404  0.70482347  0.89046821    -0.59700
H1213       H  0.57917943  0.73683960  0.99081423     0.17300
O1214       O  0.60058799  0.79847503  0.97055602    -0.59800
H1215       H  0.58342513  0.81099217  0.98645932     0.44200
H1216       H  0.53743714  0.68781892  0.87851362     0.44200
C1217       C  0.45738851  0.71278198  0.03101808    -0.04900
C1218       C  0.46065543  0.71072031  0.06766293    -0.32300
C1219       C  0.44621597  0.73748887  0.08986953     0.37000
C1220       C  0.42809528  0.76732145  0.07557534    -0.05200
C1221       C  0.42331700  0.76840412  0.03898641    -0.32200
C1222       C  0.43722748  0.74126563  0.01688479     0.36900
H1223       H  0.47633531  0.68946448  0.07905845     0.17200
O1224       O  0.45091516  0.73459769  0.12558111    -0.59700
H1225       H  0.40852493  0.79020164  0.02745986     0.17300
O1226       O  0.43253201  0.74374546  0.98114027    -0.59800
H1227       H  0.41291685  0.72743489  0.97547239     0.44200
H1228       H  0.47336252  0.74691548  0.13071821     0.44200
C1229       C  0.55775830  0.26924615  0.02720724    -0.04900
C1230       C  0.59370052  0.26310583  0.02002490    -0.32300
C1231       C  0.61129944  0.23265300  0.03256262     0.37000
C1232       C  0.59298321  0.20728881  0.05277153    -0.05200
C1233       C  0.55724230  0.21419375  0.06093439    -0.32200
C1234       C  0.53979556  0.24479643  0.04857307     0.36900
H1235       H  0.60768011  0.28083185  0.00279927     0.17200
O1236       O  0.64644762  0.22776889  0.02434034    -0.59700
H1237       H  0.54276560  0.19599837  0.07722363     0.17300
O1238       O  0.50434542  0.24946904  0.05551257    -0.59800
H1239       H  0.50315499  0.26360937  0.07780312     0.44200
H1240       H  0.64678294  0.21360327  0.00202359     0.44200
C1241       C  0.46507225  0.27047547  0.94134258    -0.04900
C1242       C  0.47696493  0.24490560  0.91606860    -0.32300
C1243       C  0.45842639  0.21315563  0.90984427     0.37000
C1244       C  0.42744294  0.20620788  0.92920257    -0.05200
C1245       C  0.41502086  0.23269238  0.95340477    -0.32200
C1246       C  0.43323895  0.26435242  0.95927406     0.36900
H1247       H  0.50210629  0.24849280  0.90287294     0.17200
O1248       O  0.47098219  0.18921571  0.88494920    -0.59700
H1249       H  0.39104248  0.22878084  0.96850109     0.17300
O1250       O  0.42162561  0.28745411  0.98541439    -0.59800
H1251       H  0.40859477  0.30659394  0.97299492     0.44200
H1252       H  0.48795558  0.17371227  0.89768630     0.44200
C1253       C  0.07528394  0.67151174  0.26549780    -0.04900
C1254       C  0.05214154  0.69969290  0.25701256    -0.32300
C1255       C  0.04985394  0.72982581  0.27891278     0.37000
C1256       C  0.07116901  0.73168181  0.30929827    -0.05200
C1257       C  0.08658446  0.70017629  0.32195098    -0.32200
C1258       C  0.08876451  0.66989519  0.30007627     0.36900
H1259       H  0.03956374  0.70060318  0.23139680     0.17200
O1260       O  0.03093862  0.75895165  0.26773925    -0.59700
H1261       H  0.10117160  0.70026415  0.34650333     0.17300
O1262       O  0.10732155  0.64048975  0.31123568    -0.59800
H1263       H  0.13258507  0.64727406  0.31100745     0.44200
H1264       H  0.00713843  0.75668689  0.27849742     0.44200
C1265       C  0.23935730  0.69949802  0.21188938    -0.04900
C1266       C  0.27426160  0.68620639  0.21002156    -0.32300
C1267       C  0.30172778  0.70890446  0.20144238     0.37000
C1268       C  0.29359573  0.74464471  0.19482827    -0.05200
C1269       C  0.25986918  0.75872097  0.20249940    -0.32200
C1270       C  0.23258833  0.73622441  0.21134025     0.36900
H1271       H  0.27945178  0.65776585  0.21040430     0.17200
O1272       O  0.33497965  0.69514215  0.19484863    -0.59700
H1273       H  0.25395143  0.78665041  0.19835932     0.17300
O1274       O  0.19852152  0.74940789  0.21333116    -0.59800
H1275       H  0.19711258  0.76293361  0.23596838     0.44200
H1276       H  0.34853395  0.69997113  0.21671520     0.44200
C1277       C  0.30308452  0.55507813  0.25279338    -0.04900
C1278       C  0.30242180  0.55906104  0.21612125    -0.32300
C1279       C  0.27108656  0.55385572  0.19746765     0.37000
C1280       C  0.23980655  0.54590213  0.21600522    -0.05200
C1281       C  0.24197863  0.53614801  0.25133221    -0.32200
C1282       C  0.27353367  0.54006309  0.26974031     0.36900
H1283       H  0.32515371  0.56939795  0.20240209     0.17200
O1284       O  0.27021866  0.56199347  0.16235351    -0.59700
H1285       H  0.21829971  0.52908849  0.26566077     0.17300
O1286       O  0.27339522  0.53389773  0.30529349    -0.59800
H1287       H  0.28168975  0.50890672  0.30752759     0.44200
H1288       H  0.27689670  0.53954186  0.14977905     0.44200
C1289       C  0.89197935  0.22245123  0.18584081    -0.04900
C1290       C  0.86149097  0.20153836  0.18513033    -0.32300
C1291       C  0.85996484  0.17067215  0.20495666     0.37000
C1292       C  0.88920251  0.16098235  0.22585895    -0.05200
C1293       C  0.92187886  0.17713607  0.21972190    -0.32200
C1294       C  0.92324700  0.20842195  0.20049611     0.36900
H1295       H  0.83746118  0.21117865  0.17274294     0.17200
O1296       O  0.82812887  0.15404118  0.20828645    -0.59700
H1297       H  0.94522120  0.16873606  0.23410747     0.17300
O1298       O  0.95447344  0.22640842  0.19845014    -0.59800
H1299       H  0.95770775  0.23763751  0.22205305     0.44200
H1300       H  0.82974790  0.13312761  0.19205451     0.44200
C1301       C  0.72522434  0.24367422  0.18008079    -0.04900
C1302       C  0.71053881  0.27601478  0.16865736    -0.32300
C1303       C  0.72962758  0.30701895  0.17186533     0.37000
C1304       C  0.76298718  0.30561124  0.18751254    -0.05200
C1305       C  0.77535243  0.27446647  0.20354703    -0.32200
C1306       C  0.75646332  0.24316594  0.19983629     0.36900
H1307       H  0.68566337  0.27666730  0.15449260     0.17200
O1308       O  0.71745048  0.33757366  0.15635352    -0.59700
H1309       H  0.80154052  0.27338569  0.21514113     0.17300
O1310       O  0.77083853  0.21182096  0.21152887    -0.59800
H1311       H  0.76145981  0.20930813  0.23609080     0.44200
H1312       H  0.72327088  0.33465658  0.13091849     0.44200
C1313       C  0.83745054  0.38995128  0.27330501    -0.04900
C1314       C  0.81779416  0.42219475  0.27323511    -0.32300
C1315       C  0.78235975  0.42318256  0.28395348     0.37000
C1316       C  0.76671476  0.39184510  0.29536226    -0.05200
C1317       C  0.78792761  0.36155861  0.30112922    -0.32200
C1318       C  0.82332460  0.36057785  0.29077537     0.36900
H1319       H  0.82840584  0.44549090  0.26081632     0.17200
O1320       O  0.76238194  0.45349489  0.27918613    -0.59700
H1321       H  0.77651507  0.33789097  0.31207278     0.17300
O1322       O  0.84216289  0.32926722  0.29365714    -0.59800
H1323       H  0.85469198  0.33129871  0.31651303     0.44200
H1324       H  0.76467085  0.46736748  0.30150324     0.44200
C1325       C  0.79818271  0.75945953  0.80617454    -0.04900
C1326       C  0.78805112  0.74171444  0.77508709    -0.32300
C1327       C  0.78064327  0.76099319  0.74494801     0.37000
C1328       C  0.78340487  0.79814140  0.74659540    -0.05200
C1329       C  0.78500213  0.81556392  0.77982701    -0.32200
C1330       C  0.79334215  0.79621337  0.80974752     0.36900
H1331       H  0.79011181  0.71298622  0.77299657     0.17200
O1332       O  0.77574874  0.74326289  0.71344556    -0.59700
H1333       H  0.78543745  0.84436528  0.78169705     0.17300
O1334       O  0.80185421  0.81365106  0.84055094    -0.59800
H1335       H  0.77894717  0.81821388  0.85275831     0.44200
H1336       H  0.79988009  0.73735808  0.70451285     0.44200
C1337       C  0.70786816  0.77140621  0.91978212    -0.04900
C1338       C  0.69042651  0.74326538  0.90267204    -0.32300
C1339       C  0.70722867  0.71000877  0.89836881     0.37000
C1340       C  0.74118638  0.70451046  0.91245788    -0.05200
C1341       C  0.75622755  0.73143799  0.93365485    -0.32200
C1342       C  0.74009623  0.76493653  0.93675686     0.36900
H1343       H  0.66522584  0.74794384  0.88982963     0.17200
O1344       O  0.69114456  0.68372823  0.87900614    -0.59700
H1345       H  0.78236483  0.72789207  0.94486192     0.17300
O1346       O  0.75727268  0.79182848  0.95417405    -0.59800
H1347       H  0.74540693  0.79408665  0.97751184     0.44200
H1348       H  0.69431546  0.69030712  0.85402599     0.44200
C1349       C  0.80941907  0.63190562  0.72963479    -0.04900
C1350       C  0.81643609  0.65687331  0.70349757    -0.32300
C1351       C  0.79933577  0.65480979  0.67095177     0.37000
C1352       C  0.77503774  0.62745405  0.66467512    -0.05200
C1353       C  0.77425556  0.59868576  0.68795085    -0.32200
C1354       C  0.79068531  0.60113680  0.72069001     0.36900
H1355       H  0.83236045  0.67988285  0.70944984     0.17200
O1356       O  0.80302309  0.68203836  0.64770530    -0.59700
H1357       H  0.75710409  0.57635732  0.68295059     0.17300
O1358       O  0.78561306  0.57488046  0.74478067    -0.59800
H1359       H  0.80538853  0.55762182  0.74065358     0.44200
H1360       H  0.82188866  0.67379969  0.63108326     0.44200
C1361       C  0.09376520  0.72289835  0.08663181    -0.04900
C1362       C  0.11334924  0.74070905  0.06076154    -0.32300
C1363       C  0.09851836  0.76974388  0.04258583     0.37000
C1364       C  0.06398529  0.78209567  0.05073576    -0.05200
C1365       C  0.04543352  0.76581569  0.07801332    -0.32200
C1366       C  0.05969712  0.73641826  0.09554072     0.36900
H1367       H  0.13971407  0.73128632  0.05363685     0.17200
O1368       O  0.11695579  0.78417109  0.01525631    -0.59700
H1369       H  0.01852031  0.77439992  0.08405921     0.17300
O1370       O  0.03987389  0.72111927  0.12139140    -0.59800
H1371       H  0.02362351  0.70492382  0.10870293     0.44200
H1372       H  0.12994111  0.80429881  0.02597157     0.44200
C1373       C  0.92548514  0.72131017  0.93774577    -0.04900
C1374       C  0.96055071  0.72294086  0.92564599    -0.32300
C1375       C  0.98318456  0.74943683  0.93840675     0.37000
C1376       C  0.97080103  0.77505690  0.96335329    -0.05200
C1377       C  0.93597718  0.77317982  0.97579083    -0.32200
C1378       C  0.91338031  0.74669950  0.96322473     0.36900
H1379       H  0.97013540  0.70432531  0.90551898     0.17200
O1380       O  0.01727518  0.75057253  0.92594412    -0.59700
H1381       H  0.92659453  0.79164602  0.99615986     0.17300
O1382       O  0.87973919  0.74512609  0.97684677    -0.59800
H1383       H  0.86621716  0.76461555  0.96546527     0.44200
H1384       H  0.03044089  0.73186258  0.93883937     0.44200
C1385       C  0.08611463  0.25641940  0.71524950    -0.04900
C1386       C  0.10127306  0.29012683  0.71549962    -0.32300
C1387       C  0.09080177  0.31521197  0.74123705     0.37000
C1388       C  0.06650949  0.30548058  0.76748175    -0.05200
C1389       C  0.04693953  0.27469361  0.76318167    -0.32200
C1390       C  0.05573678  0.25061039  0.73625117     0.36900
H1391       H  0.12365072  0.29563997  0.69861308     0.17200
O1392       O  0.10873138  0.34650617  0.74419131    -0.59700
H1393       H  0.02755372  0.26752653  0.78285919     0.17300
O1394       O  0.03745895  0.21943757  0.73381667    -0.59800
H1395       H  0.02112083  0.22261655  0.71367571     0.44200
H1396       H  0.09465739  0.36385750  0.73045872     0.44200
C1397       C  0.18494721  0.26363080  0.92812688    -0.04900
C1398       C  0.21540565  0.27426359  0.94621356    -0.32300
C1399       C  0.24287449  0.24988421  0.95157368     0.37000
C1400       C  0.23881466  0.21445558  0.94031210    -0.05200
C1401       C  0.20561105  0.20272955  0.92896449    -0.32200
C1402       C  0.17876780  0.22735878  0.92202446     0.36900
H1403       H  0.21983333  0.30209753  0.95218986     0.17200
O1404       O  0.27451418  0.26134507  0.96491228    -0.59700
H1405       H  0.20198699  0.17523913  0.92112287     0.17300
O1406       O  0.14831042  0.21619378  0.90597818    -0.59800
H1407       H  0.12988261  0.21761242  0.92459751     0.44200
H1408       H  0.28573199  0.27474204  0.94564309     0.44200
C1409       C  0.19569214  0.34921371  0.75469006    -0.04900
C1410       C  0.21331842  0.31775720  0.74385396    -0.32300
C1411       C  0.23566910  0.31759150  0.71438098     0.37000
C1412       C  0.24077144  0.34939390  0.69588902    -0.05200
C1413       C  0.22028066  0.37958951  0.70450970    -0.32200
C1414       C  0.19758154  0.37963082  0.73344176     0.36900
H1415       H  0.21124259  0.29383742  0.75920359     0.17200
O1416       O  0.25367913  0.28679791  0.70508764    -0.59700
H1417       H  0.22320430  0.40386223  0.68983496     0.17300
O1418       O  0.17758132  0.40968688  0.74089605    -0.59800
H1419       H  0.19411717  0.42678253  0.75187729     0.44200
H1420       H  0.27681210  0.28805856  0.71736977     0.44200
C1421       C  0.96014026  0.58082840  0.71297900    -0.04900
C1422       C  0.92647713  0.57265809  0.72596900    -0.32300
C1423       C  0.91351710  0.58852314  0.75731321     0.37000
C1424       C  0.93389936  0.61366993  0.77592596    -0.05200
C1425       C  0.96600200  0.62444848  0.76116736    -0.32200
C1426       C  0.97939598  0.60785348  0.73026013     0.36900
H1427       H  0.91163922  0.55141368  0.71364930     0.17200
O1428       O  0.88083329  0.57919108  0.76963470    -0.59700
H1429       H  0.98159397  0.64438930  0.77463297     0.17300
O1430       O  0.01304196  0.61536465  0.71932250    -0.59800
H1431       H  0.01001038  0.63427001  0.70162037     0.44200
H1432       H  0.88488662  0.55679724  0.78252023     0.44200
C1433       C  0.03565916  0.47796776  0.72704095    -0.04900
C1434       C  0.01641548  0.45401611  0.74724785    -0.32300
C1435       C  0.02896361  0.44273873  0.78005761     0.37000
C1436       C  0.06124258  0.45571165  0.79344585    -0.05200
C1437       C  0.08068466  0.47921612  0.77271445    -0.32200
C1438       C  0.06814984  0.49028880  0.73993020     0.36900
H1439       H  0.99072991  0.44531580  0.73825247     0.17200
O1440       O  0.01015558  0.41790468  0.79801288    -0.59700
H1441       H  0.10595230  0.48889526  0.78186417     0.17300
O1442       O  0.08666471  0.51512961  0.72169463    -0.59800
H1443       H  0.10203017  0.50117180  0.70511603     0.44200
H1444       H  0.99257285  0.43179509  0.81227319     0.44200
C1445       C  0.95867184  0.21582425  0.05116698    -0.04900
C1446       C  0.97312205  0.23815125  0.07732680    -0.32300
C1447       C  0.95582640  0.26980893  0.08804479     0.37000
C1448       C  0.92315971  0.27974423  0.07281755    -0.05200
C1449       C  0.90720350  0.25577145  0.04904067    -0.32200
C1450       C  0.92489373  0.22432983  0.03788331     0.36900
H1451       H  0.99946179  0.23253083  0.08724650     0.17200
O1452       O  0.97154880  0.29114277  0.11294785    -0.59700
H1453       H  0.88151385  0.26208936  0.03796835     0.17300
O1454       O  0.91014538  0.20342086  0.01203117    -0.59800
H1455       H  0.91769314  0.21389983  0.98943956     0.44200
H1456       H  0.96279109  0.28262752  0.13595327     0.44200
C1457       C  0.04790106  0.22560587  0.96217213    -0.04900
C1458       C  0.03069206  0.23758761  0.93178319    -0.32300
C1459       C  0.03509848  0.27242159  0.91978065     0.37000
C1460       C  0.05741800  0.29642833  0.93806558    -0.05200
C1461       C  0.07643632  0.28347318  0.96716270    -0.32200
C1462       C  0.07193068  0.24863016  0.97906321     0.36900
H1463       H  0.01120032  0.22092198  0.91908553     0.17200
O1464       O  0.01679375  0.28272293  0.89040195    -0.59700
H1465       H  0.09467756  0.30051890  0.98115616     0.17300
O1466       O  0.08838946  0.23846375  0.00953848    -0.59800
H1467       H  0.11075501  0.22654871  0.00169185     0.44200
H1468       H  0.99392372  0.29249670  0.89943504     0.44200
C1469       C  0.05413749  0.53999019  0.28451704    -0.04900
C1470       C  0.08244848  0.52036106  0.26937690    -0.32300
C1471       C  0.09388367  0.52658939  0.23474157     0.37000
C1472       C  0.07695034  0.55301014  0.21423912    -0.05200
C1473       C  0.05059808  0.57452627  0.23067331    -0.32200
C1474       C  0.03968383  0.56857609  0.26548704     0.36900
H1475       H  0.09333697  0.49765733  0.28312344     0.17200
O1476       O  0.12091196  0.50578210  0.22098889    -0.59700
H1477       H  0.03786536  0.59583970  0.21634576     0.17300
O1478       O  0.01181637  0.58817715  0.27924983    -0.59800
H1479       H  0.02283314  0.60763970  0.29309045     0.44200
H1480       H  0.10926028  0.48484995  0.21027434     0.44200
C1481       C  0.96093880  0.45513912  0.28492281    -0.04900
C1482       C  0.94155145  0.47117432  0.25760778    -0.32300
C1483       C  0.93569546  0.45316416  0.22551831     0.37000
C1484       C  0.94829951  0.41789735  0.22049713    -0.05200
C1485       C  0.96463207  0.40087758  0.24927729    -0.32200
C1486       C  0.97107650  0.41920654  0.28106874     0.36900
H1487       H  0.93404269  0.49907544  0.25989672     0.17200
O1488       O  0.91803342  0.47058127  0.19923316    -0.59700
H1489       H  0.97337182  0.37334868  0.24698171     0.17300
O1490       O  0.98961611  0.40252115  0.30726055    -0.59800
H1491       H  0.01491012  0.40498983  0.30086029     0.44200
H1492       H  0.93662035  0.48300898  0.18590210     0.44200
C1493       C  0.29655705  0.54111554  0.03899342    -0.04900
C1494       C  0.27496795  0.52170690  0.06168084    -0.32300
C1495       C  0.24408283  0.53678096  0.07647856     0.37000
C1496       C  0.23453290  0.57244731  0.06972927    -0.05200
C1497       C  0.25738312  0.59268126  0.04891225    -0.32200
C1498       C  0.28782107  0.57708242  0.03310713     0.36900
H1499       H  0.28077376  0.49376800  0.06588086     0.17200
O1500       O  0.22384444  0.51652400  0.09824196    -0.59700
H1501       H  0.25102857  0.62035401  0.04400394     0.17300
O1502       O  0.30724574  0.59637126  0.00982666    -0.59800
H1503       H  0.32754688  0.60532546  0.02368785     0.44200
H1504       H  0.20835523  0.50268475  0.08225028     0.44200
C1505       C  0.22645547  0.43134823  0.92156419    -0.04900
C1506       C  0.24295493  0.45957008  0.90441982    -0.32300
C1507       C  0.27609295  0.47174458  0.91543826     0.37000
C1508       C  0.29387104  0.45527316  0.94351412    -0.05200
C1509       C  0.27871842  0.42537857  0.95884624    -0.32200
C1510       C  0.24545314  0.41330457  0.94803535     0.36900
H1511       H  0.22955468  0.47314613  0.88318292     0.17200
O1512       O  0.28981181  0.50144469  0.90034831    -0.59700
H1513       H  0.29149812  0.41301604  0.98117073     0.17300
O1514       O  0.23164397  0.38408151  0.96386254    -0.59800
H1515       H  0.24185129  0.36337567  0.95057721     0.44200
H1516       H  0.27823787  0.52189092  0.91284032     0.44200
C1517       C  0.79724332  0.55773938  0.91731515    -0.04900
C1518       C  0.79292683  0.56767410  0.95287773    -0.32300
C1519       C  0.76442011  0.55504326  0.97250719     0.37000
C1520       C  0.73968332  0.53193773  0.95672637    -0.05200
C1521       C  0.74461089  0.52115215  0.92154438    -0.32200
C1522       C  0.77315979  0.53361717  0.90196035     0.36900
H1523       H  0.81040817  0.58690352  0.96491980     0.17200
O1524       O  0.76111842  0.56501417  0.00736732    -0.59700
H1525       H  0.72687936  0.50214022  0.90953216     0.17300
O1526       O  0.77660877  0.52310094  0.86726391    -0.59800
H1527       H  0.79174334  0.50131148  0.86758634     0.44200
H1528       H  0.74634013  0.58692550  0.00743696     0.44200
C1529       C  0.79170814  0.42558604  0.09036678    -0.04900
C1530       C  0.76256089  0.44439189  0.10559874    -0.32300
C1531       C  0.73310573  0.45459707  0.08531309     0.37000
C1532       C  0.73199926  0.44581505  0.04916047    -0.05200
C1533       C  0.75974128  0.42462160  0.03463066    -0.32200
C1534       C  0.78946353  0.41498099  0.05462932     0.36900
H1535       H  0.76296725  0.45214889  0.13324646     0.17200
O1536       O  0.70704893  0.47571056  0.10040089    -0.59700
H1537       H  0.75966403  0.41797658  0.00669272     0.17300
O1538       O  0.81604402  0.39506440  0.03887020    -0.59800
H1539       H  0.83166665  0.41256438  0.02765358     0.44200
H1540       H  0.68824540  0.45908254  0.10731562     0.44200
loop_ 
_geom_bond_atom_site_label_1 
_geom_bond_atom_site_label_2 
_geom_bond_distance 
_geom_bond_site_symmetry_2 
_ccdc_geom_bond_type 
Zn1           O5   2.003   1_554  S
Zn1           O6   2.060       .  S
Zn1          O10   2.053       .  S
Zn1          O17   2.056       .  S
Zn2           O5   2.012       .  S
Zn2           O7   2.109       .  S
Zn2           O9   2.100       .  S
Zn2          O13   2.086       .  S
Zn3           O5   1.998   1_554  S
Zn3           O8   2.049       .  S
Zn3          O11   2.065       .  S
Zn3          O14   2.083       .  S
Zn4           O5   2.004       .  S
Zn4          O12   2.109       .  S
Zn4          O15   2.082       .  S
Zn4          O16   2.089       .  S
O6           C18   1.279   1_554  A
O7           C19   1.287       .  A
O8           C20   1.279       .  A
O9           C18   1.283       .  A
O10          C20   1.278       .  A
O11          C19   1.279   1_554  A
O12          C21   1.285       .  A
O13          C22   1.283       .  A
O14          C21   1.281   1_554  A
O15          C22   1.284       .  A
O16          C23   1.283       .  A
O17          C23   1.278   1_554  A
C18         C252   1.514       .  S
C19          C95   1.515       .  S
C20         C387   1.498       .  S
C21         C243   1.521       .  S
C22         C480   1.513       .  S
C23         C106   1.509       .  S
Zn24         O28   2.017   1_565  S
Zn24         O29   2.070       .  S
Zn24         O33   2.108       .  S
Zn24         O40   2.096       .  S
Zn25         O28   2.011   1_565  S
Zn25         O30   2.118       .  S
Zn25         O32   2.079       .  S
Zn25         O36   2.117       .  S
Zn26         O28   2.010       .  S
Zn26         O31   2.075       .  S
Zn26         O34   2.089       .  S
Zn26         O37   2.060       .  S
Zn27         O28   2.011       .  S
Zn27         O35   2.072       .  S
Zn27         O38   2.089       .  S
Zn27         O39   2.090       .  S
O29          C41   1.282       .  A
O30          C42   1.287       .  A
O31          C43   1.281   1_545  A
O32          C41   1.283       .  A
O33          C43   1.284       .  A
O34          C42   1.281   1_545  A
O35          C44   1.283       .  A
O36          C45   1.286   1_565  A
O37          C44   1.281       .  A
O38          C45   1.282       .  A
O39          C46   1.282       .  A
O40          C46   1.283   1_565  A
C41         C437   1.508       .  S
C42         C544   1.525       .  S
C43         C259   1.519       .  S
C44         C428   1.503       .  S
C45         C309   1.525       .  S
C46         C535   1.519       .  S
Zn47         O51   2.010   1_655  S
Zn47         O52   2.101       .  S
Zn47         O56   2.067       .  S
Zn47         O63   2.076       .  S
Zn48         O51   2.008       .  S
Zn48         O53   2.063       .  S
Zn48         O55   2.088       .  S
Zn48         O59   2.080       .  S
Zn49         O51   2.010   1_655  S
Zn49         O54   2.064       .  S
Zn49         O57   2.087       .  S
Zn49         O60   2.117       .  S
Zn50         O51   2.011       .  S
Zn50         O58   2.113       .  S
Zn50         O61   2.083       .  S
Zn50         O62   2.071       .  S
O52          C64   1.281       .  A
O53          C65   1.279       .  A
O54          C66   1.279       .  A
O55          C64   1.279   1_455  A
O56          C66   1.280       .  A
O57          C65   1.283   1_655  A
O58          C67   1.283       .  A
O59          C68   1.282       .  A
O60          C67   1.284   1_655  A
O61          C68   1.282       .  A
O62          C69   1.280       .  A
O63          C69   1.281   1_655  A
C64         C571   1.510       .  S
C65         C133   1.495   1_455  S
C66         C396   1.489       .  S
C67         C553   1.521       .  S
C68         C471   1.498       .  S
C69         C113   1.494       .  S
Zn70         O74   2.019   1_545  S
Zn70         O75   2.100       .  S
Zn70         O79   2.121       .  S
Zn70         O86   2.089       .  S
Zn71         O74   2.000   1_554  S
Zn71         O76   2.083       .  S
Zn71         O78   2.052       .  S
Zn71         O82   2.045       .  S
Zn72         O74   1.993   1_644  S
Zn72         O77   2.059       .  S
Zn72         O80   2.079       .  S
Zn72         O83   2.061       .  S
Zn73         O74   2.015   1_655  S
Zn73         O81   2.110       .  S
Zn73         O84   2.093       .  S
Zn73         O85   2.099       .  S
O75          C87   1.283   1_545  A
O76          C88   1.281   1_565  A
O77          C89   1.281   1_654  A
O78          C87   1.279   1_554  A
O79          C89   1.287       .  A
O80          C88   1.280   1_655  A
O81          C90   1.285   1_556  A
O82          C91   1.276       .  A
O83          C90   1.280   1_545  A
O84          C91   1.284   1_656  A
O85          C92   1.284   1_655  A
O86          C92   1.284   1_545  A
C87         C270   1.511       .  S
C88         C560   1.514       .  S
C89         C124   1.517   1_556  S
C90         C279   1.515   1_565  S
C91         C165   1.508       .  S
C92         C624   1.518       .  S
C93        C1520   1.479       .  S
C93          C94   1.413       .  A
C93          C98   1.384   1_556  A
C94          C95   1.421       .  A
C94          H99   1.083       .  S
C95          C96   1.430   1_556  A
C96          C97   1.418       .  A
C96         H100   1.083       .  S
C97        C1532   1.489       .  S
C97          C98   1.387       .  A
C98         H101   1.087       .  S
C102       C1493   1.484       .  S
C102        C103   1.386   1_554  A
C102        C107   1.413       .  A
C103        C104   1.386       .  A
C103        H108   1.087       .  S
C104       C1508   1.477       .  S
C104        C105   1.411       .  A
C105        C106   1.423       .  A
C105        H109   1.083       .  S
C106        C107   1.428   1_556  A
C107        H110   1.083       .  S
C111       C1481   1.481       .  S
C111        C112   1.411       .  A
C111        C116   1.386   1_655  A
C112        C113   1.420   1_655  A
C112        H117   1.083       .  S
C113        C114   1.423       .  A
C114        C115   1.413       .  A
C114        H118   1.083       .  S
C115       C1469   1.481       .  S
C115        C116   1.385       .  A
C116        H119   1.087       .  S
C120       C1445   1.482       .  S
C120        C121   1.383   1_655  A
C120        C125   1.410       .  A
C121        C122   1.385   1_554  A
C121        H126   1.088       .  S
C122       C1457   1.486       .  S
C122        C123   1.421       .  A
C123        C124   1.430   1_556  A
C123        H127   1.082       .  S
C124        C125   1.428   1_455  A
C125        H128   1.083       .  S
C129       C1421   1.481       .  S
C129        C130   1.386       .  A
C129        C134   1.414       .  A
C130        C131   1.385   1_655  A
C130        H135   1.087       .  S
C131       C1433   1.473       .  S
C131        C132   1.410       .  A
C132        C133   1.417   1_455  A
C132        H136   1.083       .  S
C133        C134   1.423       .  A
C134        H137   1.083       .  S
Zn138       O142   1.862       .  S
Zn138       O143   1.994       .  S
Zn138       O147   1.954       .  S
Zn138       O154   1.999       .  S
Zn139       O142   1.902       .  S
Zn139       O144   1.978       .  S
Zn139       O146   2.002       .  S
Zn139       O150   2.013       .  S
Zn140       O142   1.937       .  S
Zn140       O145   2.018       .  S
Zn140       O148   1.995       .  S
Zn140       O151   1.995       .  S
Zn141       O142   1.899       .  S
Zn141       O149   1.946       .  S
Zn141       O152   2.027       .  S
Zn141       O153   2.056       .  S
O143        C155   1.274       .  A
O144        C156   1.260       .  A
O145        C157   1.274       .  A
O146        C155   1.280       .  A
O147        C157   1.268       .  A
O148        C156   1.269       .  A
O149        C158   1.263       .  A
O150        C159   1.279       .  A
O151        C158   1.272       .  A
O152        C159   1.285       .  A
O153        C160   1.284       .  A
O154        C160   1.275       .  A
C155       C1436   1.484       .  S
C156       C1388   1.450       .  S
C157       C1409   1.470       .  S
C158       C1397   1.454       .  S
C159       C1460   1.502       .  S
C160       C1505   1.489       .  S
C161       C1376   1.480       .  S
C161        C162   1.391   1_656  A
C161        C166   1.410       .  A
C162        C163   1.392       .  A
C162        H167   1.086       .  S
C163       C1364   1.485       .  S
C163        C164   1.414       .  A
C164        C165   1.426       .  A
C164        H168   1.083       .  S
C165        C166   1.417   1_454  A
C166        H169   1.083       .  S
Zn170       O174   1.871       .  S
Zn170       O175   1.996       .  S
Zn170       O179   1.990       .  S
Zn170       O186   1.978       .  S
Zn171       O174   1.850       .  S
Zn171       O176   2.104       .  S
Zn171       O178   2.063       .  S
Zn171       O182   2.100       .  S
Zn172       O174   1.853       .  S
Zn172       O177   1.977       .  S
Zn172       O180   1.949       .  S
Zn172       O183   1.963       .  S
Zn173       O174   1.891       .  S
Zn173       O181   2.052       .  S
Zn173       O184   1.935       .  S
Zn173       O185   2.004       .  S
O175        C187   1.276       .  A
O176        C188   1.287       .  A
O177        C189   1.267       .  A
O178        C187   1.285       .  A
O179        C189   1.277       .  A
O180        C188   1.269       .  A
O181        C190   1.280       .  A
O182        C191   1.290       .  A
O183        C190   1.266       .  A
O184        C191   1.269       .  A
O185        C192   1.275       .  A
O186        C192   1.268       .  A
C187       C1424   1.483       .  S
C188       C1373   1.484       .  S
C189       C1325   1.446       .  S
C190       C1340   1.472       .  S
C191       C1517   1.475       .  S
C192       C1349   1.467       .  S
Zn193       O197   1.840       .  S
Zn193       O198   2.050       .  S
Zn193       O202   2.078       .  S
Zn193       O209   2.098       .  S
Zn194       O197   1.840       .  S
Zn194       O199   1.985       .  S
Zn194       O201   1.989       .  S
Zn194       O205   1.984       .  S
Zn195       O197   1.886       .  S
Zn195       O200   1.963       .  S
Zn195       O203   2.021       .  S
Zn195       O206   2.037       .  S
Zn196       O197   1.858       .  S
Zn196       O204   1.963       .  S
Zn196       O207   1.960       .  S
Zn196       O208   1.971       .  S
O198        C210   1.284       .  A
O199        C211   1.272       .  A
O200        C212   1.272       .  A
O201        C210   1.275       .  A
O202        C212   1.286       .  A
O203        C211   1.278       .  A
O204        C213   1.268       .  A
O205        C214   1.276       .  A
O206        C213   1.278       .  A
O207        C214   1.269       .  A
O208        C215   1.270       .  A
O209        C215   1.287       .  A
C210       C1448   1.489       .  S
C211       C1289   1.472       .  S
C212       C1484   1.493       .  S
C213       C1313   1.474       .  S
C214       C1304   1.435       .  S
C215       C1529   1.496       .  S
Zn216       O220   1.895       .  S
Zn216       O221   1.988       .  S
Zn216       O225   2.004       .  S
Zn216       O232   2.045       .  S
Zn217       O220   1.946       .  S
Zn217       O222   2.006       .  S
Zn217       O224   2.002       .  S
Zn217       O228   1.992       .  S
Zn218       O220   1.906       .  S
Zn218       O223   2.012       .  S
Zn218       O226   1.970       .  S
Zn218       O229   2.011       .  S
Zn219       O220   1.885       .  S
Zn219       O227   2.039       .  S
Zn219       O230   1.979       .  S
Zn219       O231   2.045       .  S
O221        C233   1.271       .  A
O222        C234   1.271       .  A
O223        C235   1.278       .  A
O224        C233   1.271       .  A
O225        C235   1.281       .  A
O226        C234   1.263       .  A
O227        C236   1.278       .  A
O228        C237   1.270       .  A
O229        C236   1.282       .  A
O230        C237   1.274       .  A
O231        C238   1.279       .  A
O232        C238   1.282       .  A
C233       C1253   1.476       .  S
C234       C1280   1.466       .  S
C235       C1472   1.500       .  S
C236       C1496   1.488       .  S
C237       C1265   1.445       .  S
C238       C1361   1.497       .  S
C239       C1229   1.488       .  S
C239        C240   1.385   1_554  A
C239        C244   1.417       .  A
C240        C241   1.385       .  A
C240        H245   1.087       .  S
C241       C1241   1.486       .  S
C241        C242   1.419       .  A
C242        C243   1.428       .  A
C242        H246   1.083       .  S
C243        C244   1.429   1_556  A
C244        H247   1.083       .  S
C248       C1208   1.485       .  S
C248        C249   1.388       .  A
C248        C253   1.416       .  A
C249        C250   1.387   1_556  A
C249        H254   1.086       .  S
C250       C1217   1.490       .  S
C250        C251   1.414       .  A
C251        C252   1.426   1_554  A
C251        H255   1.083       .  S
C252        C253   1.426       .  A
C253        H256   1.083       .  S
C257       C1193   1.487       .  S
C257        C258   1.419       .  A
C257        C262   1.387       .  A
C258        C259   1.426       .  A
C258        H263   1.083       .  S
C259        C260   1.426   1_565  A
C260        C261   1.416       .  A
C260        H264   1.083       .  S
C261       C1181   1.491       .  S
C261        C262   1.389   1_545  A
C262        H265   1.086       .  S
C266       C1157   1.479   1_556  S
C266        C267   1.387       .  A
C266        C271   1.408   1_556  A
C267        C268   1.390       .  A
C267        H272   1.087       .  S
C268       C1172   1.486   1_565  S
C268        C269   1.420   1_565  A
C269        C270   1.423   1_545  A
C269        H273   1.083       .  S
C270        C271   1.422   1_556  A
C271        H274   1.083       .  S
C275       C1145   1.484       .  S
C275        C276   1.385   1_566  A
C275        C280   1.418       .  A
C276        C277   1.384       .  A
C276        H281   1.087       .  S
C277       C1136   1.482       .  S
C277        C278   1.411       .  A
C278        C279   1.427       .  A
C278        H282   1.083       .  S
C279        C280   1.428   1_544  A
C280        H283   1.083       .  S
Zn284       O288   1.946       .  S
Zn284       O289   1.969       .  S
Zn284       O293   2.014       .  S
Zn284       O300   1.999       .  S
Zn285       O288   1.865       .  S
Zn285       O290   2.047       .  S
Zn285       O292   1.981       .  S
Zn285       O296   2.043       .  S
Zn286       O288   1.869       .  S
Zn286       O291   1.970       .  S
Zn286       O294   1.996       .  S
Zn286       O297   2.014       .  S
Zn287       O288   1.880       .  S
Zn287       O295   2.035       .  S
Zn287       O298   2.073       .  S
Zn287       O299   1.979       .  S
O289        C301   1.268       .  A
O290        C302   1.279       .  A
O291        C303   1.260       .  A
O292        C301   1.274       .  A
O293        C303   1.270       .  A
O294        C302   1.282       .  A
O295        C304   1.286       .  A
O296        C305   1.281       .  A
O297        C304   1.281       .  A
O298        C305   1.287       .  A
O299        C306   1.270       .  A
O300        C306   1.271       .  A
C301       C1112   1.440       .  S
C302       C1205   1.493       .  S
C303       C1337   1.462       .  S
C304       C1148   1.499       .  S
C305       C1121   1.506       .  S
C306       C1100   1.473       .  S
C307       C1124   1.493       .  S
C307        C308   1.418       .  A
C307        C312   1.392   1_565  A
C308        C309   1.427   1_565  A
C308        H313   1.083       .  S
C309        C310   1.431       .  A
C310        C311   1.421       .  A
C310        H314   1.083       .  S
C311       C1085   1.502       .  S
C311        C312   1.395       .  A
C312        H315   1.086       .  S
Zn316       O320   1.959       .  S
Zn316       O321   2.130       .  S
Zn316       O325   2.150       .  S
Zn316       O332   2.078       .  S
Zn317       O320   1.898       .  S
Zn317       O322   1.957       .  S
Zn317       O324   1.948       .  S
Zn317       O328   2.005       .  S
Zn318       O320   1.866       .  S
Zn318       O323   1.933       .  S
Zn318       O326   1.975       .  S
Zn318       O329   1.957       .  S
Zn319       O320   1.857       .  S
Zn319       O327   2.035       .  S
Zn319       O330   2.025       .  S
Zn319       O331   2.051       .  S
O321        C333   1.278       .  A
O322        C334   1.260       .  A
O323        C335   1.261       .  A
O324        C333   1.253       .  A
O325        C335   1.289       .  A
O326        C334   1.266       .  A
O327        C336   1.282       .  A
O328        C337   1.275       .  A
O329        C336   1.271       .  A
O330        C337   1.282       .  A
O331        C338   1.277       .  A
O332        C338   1.283       .  A
C333       C1169   1.498       .  S
C334       C1400   1.456       .  S
C335       C1244   1.500       .  S
C336       C1073   1.457       .  S
C337       C1061   1.458       .  S
C338       C1088   1.493       .  S
Zn339       O343   1.833       .  S
Zn339       O344   1.933       .  S
Zn339       O348   1.975       .  S
Zn339       O355   1.954       .  S
Zn340       O343   1.851       .  S
Zn340       O345   2.068       .  S
Zn340       O347   2.119       .  S
Zn340       O351   2.125       .  S
Zn341       O343   1.845       .  S
Zn341       O346   1.997       .  S
Zn341       O349   1.993       .  S
Zn341       O352   1.983       .  S
Zn342       O343   1.904       .  S
Zn342       O350   2.018       .  S
Zn342       O353   1.962       .  S
Zn342       O354   2.073       .  S
O344        C356   1.264       .  A
O345        C357   1.288       .  A
O346        C358   1.279       .  A
O347        C356   1.287       .  A
O348        C358   1.269       .  A
O349        C357   1.277       .  A
O350        C359   1.278       .  A
O351        C360   1.292       .  A
O352        C359   1.269       .  A
O353        C360   1.269       .  A
O354        C361   1.281       .  A
O355        C361   1.258       .  A
C356       C1220   1.490       .  S
C357       C1160   1.483       .  S
C358       C1268   1.447       .  S
C359       C1037   1.469       .  S
C360       C1196   1.488       .  S
C361       C1052   1.475       .  S
Zn362       O366   1.865       .  S
Zn362       O367   1.952       .  S
Zn362       O371   1.943       .  S
Zn362       O378   2.011       .  S
Zn363       O366   1.872       .  S
Zn363       O368   2.096       .  S
Zn363       O370   2.109       .  S
Zn363       O374   2.099       .  S
Zn364       O366   1.850       .  S
Zn364       O369   1.985       .  S
Zn364       O372   1.975       .  S
Zn364       O375   1.969       .  S
Zn365       O366   1.885       .  S
Zn365       O373   2.041       .  S
Zn365       O376   1.957       .  S
Zn365       O377   1.990       .  S
O367        C379   1.265       .  A
O368        C380   1.287       .  A
O369        C381   1.271       .  A
O370        C379   1.287       .  A
O371        C381   1.270       .  A
O372        C380   1.271       .  A
O373        C382   1.277       .  A
O374        C383   1.286       .  A
O375        C382   1.270       .  A
O376        C383   1.269       .  A
O377        C384   1.274       .  A
O378        C384   1.274       .  A
C379       C1232   1.496       .  S
C380       C1133   1.482       .  S
C381       C1301   1.447       .  S
C382       C1013   1.467       .  S
C383       C1184   1.496       .  S
C384       C1025   1.474       .  S
C385       C1001   1.470       .  S
C385        C386   1.402       .  A
C385        C390   1.386       .  A
C386        C387   1.420       .  A
C386        H391   1.083       .  S
C387        C388   1.426       .  A
C388        C389   1.412       .  A
C388        H392   1.083       .  S
C389        C992   1.478       .  S
C389        C390   1.382       .  A
C390        H393   1.088       .  S
C394        C977   1.473       .  S
C394        C395   1.406       .  A
C394        C399   1.387       .  A
C395        C396   1.415       .  A
C395        H400   1.083       .  S
C396        C397   1.420       .  A
C397        C398   1.416       .  A
C397        H401   1.083       .  S
C398        C965   1.488       .  S
C398        C399   1.391       .  A
C399        H402   1.086       .  S
Zn403       O407   1.939       .  S
Zn403       O408   2.000       .  S
Zn403       O412   1.984       .  S
Zn403       O419   2.002       .  S
Zn404       O407   1.870       .  S
Zn404       O409   1.984       .  S
Zn404       O411   2.008       .  S
Zn404       O415   1.934       .  S
Zn405       O407   1.906       .  S
Zn405       O410   1.991       .  S
Zn405       O413   2.059       .  S
Zn405       O416   2.009       .  S
Zn406       O407   1.898       .  S
Zn406       O414   1.995       .  S
Zn406       O417   1.979       .  S
Zn406       O418   1.971       .  S
O408        C420   1.277       .  A
O409        C421   1.274       .  A
O410        C422   1.282       .  A
O411        C420   1.273       .  A
O412        C422   1.274       .  A
O413        C421   1.282       .  A
O414        C423   1.272       .  A
O415        C424   1.267       .  A
O416        C423   1.272       .  A
O417        C424   1.270       .  A
O418        C425   1.268       .  A
O419        C425   1.269       .  A
C420        C980   1.483       .  S
C421        C953   1.492       .  S
C422       C1004   1.487       .  S
C423       C1028   1.474       .  S
C424        C941   1.450       .  S
C425       C1316   1.463       .  S
C426        C956   1.476       .  S
C426        C427   1.410       .  A
C426        C431   1.386       .  A
C427        C428   1.423       .  A
C427        H432   1.083       .  S
C428        C429   1.421       .  A
C429        C430   1.410       .  A
C429        H433   1.083       .  S
C430        C929   1.477       .  S
C430        C431   1.387       .  A
C431        H434   1.087       .  S
C435        C917   1.478       .  S
C435        C436   1.412       .  A
C435        C440   1.385       .  A
C436        C437   1.425       .  A
C436        H441   1.083       .  S
C437        C438   1.423       .  A
C438        C439   1.410       .  A
C438        H442   1.083       .  S
C439        C905   1.476       .  S
C439        C440   1.386       .  A
C440        H443   1.087       .  S
Zn444       O448   1.864       .  S
Zn444       O449   2.003       .  S
Zn444       O453   2.008       .  S
Zn444       O460   1.953       .  S
Zn445       O448   1.866       .  S
Zn445       O450   2.049       .  S
Zn445       O452   2.032       .  S
Zn445       O456   1.956       .  S
Zn446       O448   1.863       .  S
Zn446       O451   2.034       .  S
Zn446       O454   2.013       .  S
Zn446       O457   1.976       .  S
Zn447       O448   1.952       .  S
Zn447       O455   1.961       .  S
Zn447       O458   2.028       .  S
Zn447       O459   2.017       .  S
O449        C461   1.279       .  A
O450        C462   1.285       .  A
O451        C463   1.278       .  A
O452        C461   1.284       .  A
O453        C463   1.281       .  A
O454        C462   1.277       .  A
O455        C464   1.265       .  A
O456        C465   1.265       .  A
O457        C464   1.273       .  A
O458        C465   1.276       .  A
O459        C466   1.274       .  A
O460        C466   1.262       .  A
C461        C989   1.494       .  S
C462        C893   1.492       .  S
C463        C920   1.484       .  S
C464        C884   1.436       .  S
C465       C1277   1.475       .  S
C466       C1049   1.460       .  S
C467        C896   1.481       .  S
C467        C468   1.390       .  A
C467        C472   1.411       .  A
C468        C469   1.390       .  A
C468        H473   1.086       .  S
C469        C869   1.489       .  S
C469        C470   1.417       .  A
C470        C471   1.422       .  A
C470        H474   1.083       .  S
C471        C472   1.418       .  A
C472        H475   1.083       .  S
C476        C845   1.491       .  S
C476        C477   1.389       .  A
C476        C481   1.419       .  A
C477        C478   1.385       .  A
C477        H482   1.086       .  S
C478        C857   1.477       .  S
C478        C479   1.409       .  A
C479        C480   1.422       .  A
C479        H483   1.083       .  S
C480        C481   1.427       .  A
C481        H484   1.083       .  S
Zn485       O489   1.880       .  S
Zn485       O490   2.004       .  S
Zn485       O494   1.984       .  S
Zn485       O501   1.995       .  S
Zn486       O489   1.854       .  S
Zn486       O491   1.980       .  S
Zn486       O493   1.970       .  S
Zn486       O497   1.989       .  S
Zn487       O489   1.828       .  S
Zn487       O492   2.060       .  S
Zn487       O495   2.061       .  S
Zn487       O498   2.085       .  S
Zn488       O489   1.862       .  S
Zn488       O496   1.982       .  S
Zn488       O499   1.988       .  S
Zn488       O500   1.986       .  S
O490        C502   1.275       .  A
O491        C503   1.273       .  A
O492        C504   1.285       .  A
O493        C502   1.271       .  A
O494        C504   1.275       .  A
O495        C503   1.284       .  A
O496        C505   1.274       .  A
O497        C506   1.275       .  A
O498        C505   1.287       .  A
O499        C506   1.271       .  A
O500        C507   1.274       .  A
O501        C507   1.272       .  A
C502       C1076   1.466       .  S
C503        C860   1.483       .  S
C504        C932   1.486       .  S
C505        C872   1.493       .  S
C506       C1412   1.463       .  S
C507        C833   1.472       .  S
Zn508       O512   1.876       .  S
Zn508       O513   2.080       .  S
Zn508       O517   2.064       .  S
Zn508       O524   2.095       .  S
Zn509       O512   1.901       .  S
Zn509       O514   2.017       .  S
Zn509       O516   1.963       .  S
Zn509       O520   2.043       .  S
Zn510       O512   1.852       .  S
Zn510       O515   1.966       .  S
Zn510       O518   2.002       .  S
Zn510       O521   1.969       .  S
Zn511       O512   1.850       .  S
Zn511       O519   1.983       .  S
Zn511       O522   1.964       .  S
Zn511       O523   1.968       .  S
O513        C525   1.285       .  A
O514        C526   1.277       .  A
O515        C527   1.271       .  A
O516        C525   1.270       .  A
O517        C527   1.285       .  A
O518        C526   1.271       .  A
O519        C528   1.272       .  A
O520        C529   1.278       .  A
O521        C528   1.275       .  A
O522        C529   1.267       .  A
O523        C530   1.269       .  A
O524        C530   1.285       .  A
C525        C968   1.492       .  S
C526        C824   1.481       .  S
C527        C908   1.486       .  S
C528       C1109   1.446       .  S
C529       C1352   1.474       .  S
C530        C848   1.487       .  S
C531        C800   1.486       .  S
C531        C532   1.389       .  A
C531        C536   1.416       .  A
C532        C533   1.390   1_545  A
C532        H537   1.086       .  S
C533        C809   1.492       .  S
C533        C534   1.418       .  A
C534        C535   1.427   1_565  A
C534        H538   1.083       .  S
C535        C536   1.426       .  A
C536        H539   1.083       .  S
C540        C773   1.486       .  S
C540        C541   1.387       .  A
C540        C545   1.416       .  A
C541        C542   1.386   1_565  A
C541        H546   1.087       .  S
C542        C785   1.498       .  S
C542        C543   1.424       .  A
C543        C544   1.434   1_545  A
C543        H547   1.082       .  S
C544        C545   1.425       .  A
C545        H548   1.083       .  S
C549        C749   1.485       .  S
C549        C550   1.389       .  A
C549        C554   1.415       .  A
C550        C551   1.389   1_455  A
C550        H555   1.086       .  S
C551        C761   1.506       .  S
C551        C552   1.429       .  A
C552        C553   1.435   1_655  A
C552        H556   1.083       .  S
C553        C554   1.422       .  A
C554        H557   1.083       .  S
C558        C737   1.481       .  S
C558        C559   1.413       .  A
C558        C563   1.386   1_565  A
C559        C560   1.425   1_565  A
C559        H564   1.083       .  S
C560        C561   1.428   1_455  A
C561        C562   1.416       .  A
C561        H565   1.083       .  S
C562        C725   1.487       .  S
C562        C563   1.386   1_655  A
C563        H566   1.087       .  S
C567        C716   1.497       .  S
C567        C568   1.396       .  A
C567        C572   1.418       .  A
C568        C569   1.392   1_655  A
C568        H573   1.086       .  S
C569        C704   1.491       .  S
C569        C570   1.418       .  A
C570        C571   1.423   1_455  A
C570        H574   1.083       .  S
C571        C572   1.424       .  A
C572        H575   1.083       .  S
Zn576       O580   1.863       .  S
Zn576       O581   2.010       .  S
Zn576       O585   1.977       .  S
Zn576       O592   1.963       .  S
Zn577       O580   1.909       .  S
Zn577       O582   1.942       .  S
Zn577       O584   1.977       .  S
Zn577       O588   2.038       .  S
Zn578       O580   1.893       .  S
Zn578       O583   2.108       .  S
Zn578       O586   2.112       .  S
Zn578       O589   2.113       .  S
Zn579       O580   1.867       .  S
Zn579       O587   1.981       .  S
Zn579       O590   1.971       .  S
Zn579       O591   1.978       .  S
O581        C593   1.272       .  A
O582        C594   1.261       .  A
O583        C595   1.289       .  A
O584        C593   1.270       .  A
O585        C595   1.271       .  A
O586        C594   1.284       .  A
O587        C596   1.270       .  A
O588        C597   1.277       .  A
O589        C596   1.287       .  A
O590        C597   1.269       .  A
O591        C598   1.271       .  A
O592        C598   1.275       .  A
C593       C1256   1.475       .  S
C594        C740   1.494       .  S
C595        C701   1.491       .  S
C596        C812   1.493       .  S
C597       C1040   1.473       .  S
C598        C881   1.451       .  S
Zn599       O603   1.861       .  S
Zn599       O604   1.976       .  S
Zn599       O608   1.995       .  S
Zn599       O615   1.956       .  S
Zn600       O603   1.840       .  S
Zn600       O605   2.094       .  S
Zn600       O607   2.116       .  S
Zn600       O611   2.170       .  S
Zn601       O603   1.886       .  S
Zn601       O606   2.021       .  S
Zn601       O609   1.974       .  S
Zn601       O612   2.029       .  S
Zn602       O603   1.881       .  S
Zn602       O610   1.972       .  S
Zn602       O613   1.964       .  S
Zn602       O614   1.981       .  S
O604        C616   1.270       .  A
O605        C617   1.289       .  A
O606        C618   1.278       .  A
O607        C616   1.287       .  A
O608        C618   1.273       .  A
O609        C617   1.273       .  A
O610        C619   1.272       .  A
O611        C620   1.296       .  A
O612        C619   1.277       .  A
O613        C620   1.269       .  A
O614        C621   1.272       .  A
O615        C621   1.267       .  A
C616        C788   1.505       .  S
C617        C728   1.497       .  S
C618       C1016   1.471       .  S
C619       C1292   1.472       .  S
C620        C764   1.508       .  S
C621        C944   1.463       .  S
C622        C677   1.484       .  S
C622        C623   1.414       .  A
C622        C627   1.386   1_545  A
C623        C624   1.425   1_545  A
C623        H628   1.083       .  S
C624        C625   1.429   1_455  A
C625        C626   1.419       .  A
C625        H629   1.083       .  S
C626        C689   1.490       .  S
C626        C627   1.388   1_655  A
C627        H630   1.087       .  S
Zn631       O635   1.840       .  S
Zn631       O636   1.953       .  S
Zn631       O640   1.924       .  S
Zn631       O647   1.990       .  S
Zn632       O635   1.912       .  S
Zn632       O637   2.084       .  S
Zn632       O639   2.124       .  S
Zn632       O643   2.105       .  S
Zn633       O635   1.871       .  S
Zn633       O638   2.026       .  S
Zn633       O641   2.022       .  S
Zn633       O644   1.964       .  S
Zn634       O635   1.913       .  S
Zn634       O642   2.048       .  S
Zn634       O645   1.946       .  S
Zn634       O646   1.998       .  S
O636        C648   1.265       .  A
O637        C649   1.286       .  A
O638        C650   1.276       .  A
O639        C648   1.290       .  A
O640        C650   1.267       .  A
O641        C649   1.277       .  A
O642        C651   1.278       .  A
O643        C652   1.282       .  A
O644        C651   1.273       .  A
O645        C652   1.261       .  A
O646        C653   1.274       .  A
O647        C653   1.269       .  A
C648        C692   1.490       .  S
C649        C713   1.492       .  S
C650       C1328   1.463       .  S
C651        C821   1.468       .  S
C652        C776   1.496       .  S
C653       C1097   1.466       .  S
Zn654       O658   1.892       .  S
Zn654       O659   1.973       .  S
Zn654       O663   1.966       .  S
Zn654       O670   1.997       .  S
Zn655       O658   1.911       .  S
Zn655       O660   2.105       .  S
Zn655       O662   2.084       .  S
Zn655       O666   2.106       .  S
Zn656       O658   1.896       .  S
Zn656       O661   2.032       .  S
Zn656       O664   1.945       .  S
Zn656       O667   1.921       .  S
Zn657       O658   1.898       .  S
Zn657       O665   2.042       .  S
Zn657       O668   1.972       .  S
Zn657       O669   1.981       .  S
O659        C671   1.268       .  A
O660        C672   1.280       .  A
O661        C673   1.276       .  A
O662        C671   1.283       .  A
O663        C673   1.270       .  A
O664        C672   1.258       .  A
O665        C674   1.276       .  A
O666        C675   1.287       .  A
O667        C674   1.265       .  A
O668        C675   1.267       .  A
O669        C676   1.274       .  A
O670        C676   1.271       .  A
C671        C797   1.495       .  S
C672        C680   1.492       .  S
C673       C1064   1.472       .  S
C674       C1385   1.468       .  S
C675        C752   1.490       .  S
C676        C836   1.454       .  S
C677        C678   1.399       .  A
C677        C682   1.413       .  A
C678        C679   1.401       .  A
C678        H683   1.084       .  S
C679        C680   1.418       .  A
C679        O684   1.373       .  S
C680        C681   1.405       .  A
C681        C682   1.408       .  A
C681        H685   1.083       .  S
C682        O686   1.372   1_545  S
O684        H688   0.991       .  S
O686        H687   0.991       .  S
C689        C690   1.411       .  A
C689        C694   1.405       .  A
C690        C691   1.402       .  A
C690        H695   1.084       .  S
C691        C692   1.406       .  A
C691        O696   1.371       .  S
C692        C693   1.415       .  A
C693        C694   1.409       .  A
C693        H697   1.083       .  S
C694        O698   1.371       .  S
O696        H700   0.991       .  S
O698        H699   0.989   1_655  S
C701        C702   1.405       .  A
C701        C706   1.413       .  A
C702        C703   1.407       .  A
C702        H707   1.084       .  S
C703        C704   1.412       .  A
C703        O708   1.372   1_455  S
C704        C705   1.404       .  A
C705        C706   1.409       .  A
C705        H709   1.084       .  S
C706        O710   1.372       .  S
O708        H712   0.992       .  S
O710        H711   0.992       .  S
C713        C714   1.401       .  A
C713        C718   1.416       .  A
C714        C715   1.402       .  A
C714        H719   1.084       .  S
C715        C716   1.416       .  A
C715        O720   1.372       .  S
C716        C717   1.404       .  A
C717        C718   1.411       .  A
C717        H721   1.083       .  S
C718        O722   1.372       .  S
O720        H724   0.992   1_655  S
O722        H723   0.992       .  S
C725        C726   1.402       .  A
C725        C730   1.412       .  A
C726        C727   1.406       .  A
C726        H731   1.084       .  S
C727        C728   1.418       .  A
C727        O732   1.372       .  S
C728        C729   1.406       .  A
C729        C730   1.406       .  A
C729        H733   1.083       .  S
C730        O734   1.372   1_655  S
O732        H736   0.992   1_545  S
O734        H735   0.992       .  S
C737        C738   1.400       .  A
C737        C742   1.412       .  A
C738        C739   1.400       .  A
C738        H743   1.084       .  S
C739        C740   1.418       .  A
C739        O744   1.372       .  S
C740        C741   1.406       .  A
C741        C742   1.408       .  A
C741        H745   1.083       .  S
C742        O746   1.371       .  S
O744        H748   0.991   1_455  S
O746        H747   0.991       .  S
C749        C750   1.402       .  A
C749        C754   1.413       .  A
C750        C751   1.405       .  A
C750        H755   1.084       .  S
C751        C752   1.417       .  A
C751        O756   1.372       .  S
C752        C753   1.403       .  A
C753        C754   1.406       .  A
C753        H757   1.083       .  S
C754        O758   1.372   1_455  S
O756        H760   0.991       .  S
O758        H759   0.991       .  S
C761        C762   1.402       .  A
C761        C766   1.419       .  A
C762        C763   1.412       .  A
C762        H767   1.083       .  S
C763        C764   1.422       .  A
C763        O768   1.372       .  S
C764        C765   1.404       .  A
C765        C766   1.414       .  A
C765        H769   1.083       .  S
C766        O770   1.372       .  S
O768        H772   0.993       .  S
O770        H771   0.991       .  S
C773        C774   1.411       .  A
C773        C778   1.404       .  A
C774        C775   1.406       .  A
C774        H779   1.084       .  S
C775        C776   1.409       .  A
C775        O780   1.371       .  S
C776        C777   1.414       .  A
C777        C778   1.401       .  A
C777        H781   1.083       .  S
C778        O782   1.372       .  S
O780        H784   0.992       .  S
O782        H783   0.991       .  S
C785        C786   1.413       .  A
C785        C790   1.408       .  A
C786        C787   1.411       .  A
C786        H791   1.084   1_545  S
C787        C788   1.413       .  A
C787        O792   1.371       .  S
C788        C789   1.413       .  A
C789        C790   1.409       .  A
C789        H793   1.083       .  S
C790        O794   1.371       .  S
O792        H796   0.992       .  S
O794        H795   0.991       .  S
C797        C798   1.405       .  A
C797        C802   1.419       .  A
C798        C799   1.407       .  A
C798        H803   1.083       .  S
C799        C800   1.413       .  A
C799        O804   1.372       .  S
C800        C801   1.399       .  A
C801        C802   1.403       .  A
C801        H805   1.084       .  S
C802        O806   1.372       .  S
O804        H808   0.992       .  S
O806        H807   0.992       .  S
C809        C810   1.412       .  A
C809        C814   1.405       .  A
C810        C811   1.406       .  A
C810        H815   1.084       .  S
C811        C812   1.407       .  A
C811        O816   1.371       .  S
C812        C813   1.412       .  A
C813        C814   1.406       .  A
C813        H817   1.083       .  S
C814        O818   1.371       .  S
O816        H820   0.992       .  S
O818        H819   0.992   1_565  S
C821        C822   1.399       .  A
C821        C826   1.409       .  A
C822        C823   1.401       .  A
C822        H827   1.084       .  S
C823        C824   1.415       .  A
C823        O828   1.373       .  S
C824        C825   1.404       .  A
C825        C826   1.396       .  A
C825        H829   1.084       .  S
C826        O830   1.372       .  S
O828        H832   0.988       .  S
O830        H831   0.991       .  S
C833        C834   1.403       .  A
C833        C838   1.417       .  A
C834        C835   1.391       .  A
C834        H839   1.084       .  S
C835        C836   1.404       .  A
C835        O840   1.373       .  S
C836        C837   1.397       .  A
C837        C838   1.397       .  A
C837        H841   1.084       .  S
C838        O842   1.372       .  S
O840        H844   0.991       .  S
O842        H843   0.991       .  S
C845        C846   1.413       .  A
C845        C850   1.405       .  A
C846        C847   1.403       .  A
C846        H851   1.084       .  S
C847        C848   1.406       .  A
C847        O852   1.372       .  S
C848        C849   1.411       .  A
C849        C850   1.405       .  A
C849        H853   1.084       .  S
C850        O854   1.371       .  S
O852        H856   0.992       .  S
O854        H855   0.991       .  S
C857        C858   1.405       .  A
C857        C862   1.405       .  A
C858        C859   1.402       .  A
C858        H863   1.084       .  S
C859        C860   1.411       .  A
C859        O864   1.372       .  S
C860        C861   1.408       .  A
C861        C862   1.401       .  A
C861        H865   1.084       .  S
C862        O866   1.371       .  S
O864        H868   0.991       .  S
O866        H867   0.991       .  S
C869        C870   1.410       .  A
C869        C874   1.405       .  A
C870        C871   1.405       .  A
C870        H875   1.084       .  S
C871        C872   1.410       .  A
C871        O876   1.372       .  S
C872        C873   1.412       .  A
C873        C874   1.404       .  A
C873        H877   1.083       .  S
C874        O878   1.371       .  S
O876        H880   0.991       .  S
O878        H879   0.992       .  S
C881        C882   1.402       .  A
C881        C886   1.406       .  A
C882        C883   1.381       .  A
C882        H887   1.084       .  S
C883        C884   1.397       .  A
C883        O888   1.372       .  S
C884        C885   1.400       .  A
C885        C886   1.395       .  A
C885        H889   1.083       .  S
C886        O890   1.372       .  S
O888        H892   0.991       .  S
O890        H891   0.991       .  S
C893        C894   1.412       .  A
C893        C898   1.412       .  A
C894        C895   1.406       .  A
C894        H899   1.083       .  S
C895        C896   1.405       .  A
C895        O900   1.371       .  S
C896        C897   1.405       .  A
C897        C898   1.401       .  A
C897        H901   1.084       .  S
C898        O902   1.372       .  S
O900        H904   0.991       .  S
O902        H903   0.992       .  S
C905        C906   1.400       .  A
C905        C910   1.410       .  A
C906        C907   1.403       .  A
C906        H911   1.084       .  S
C907        C908   1.415       .  A
C907        O912   1.372       .  S
C908        C909   1.405       .  A
C909        C910   1.402       .  A
C909        H913   1.083       .  S
C910        O914   1.373       .  S
O912        H916   0.992       .  S
O914        H915   0.991       .  S
C917        C918   1.402       .  A
C917        C922   1.410       .  A
C918        C919   1.399       .  A
C918        H923   1.084       .  S
C919        C920   1.411       .  A
C919        O924   1.372       .  S
C920        C921   1.407       .  A
C921        C922   1.407       .  A
C921        H925   1.083       .  S
C922        O926   1.371       .  S
O924        H928   0.992       .  S
O926        H927   0.991       .  S
C929        C930   1.404       .  A
C929        C934   1.405       .  A
C930        C931   1.400       .  A
C930        H935   1.084       .  S
C931        C932   1.411       .  A
C931        O936   1.371       .  S
C932        C933   1.410       .  A
C933        C934   1.403       .  A
C933        H937   1.083       .  S
C934        O938   1.371       .  S
O936        H940   0.991       .  S
O938        H939   0.991       .  S
C941        C942   1.398       .  A
C941        C946   1.404       .  A
C942        C943   1.384       .  A
C942        H947   1.085       .  S
C943        C944   1.413       .  A
C943        O948   1.373       .  S
C944        C945   1.404       .  A
C945        C946   1.393       .  A
C945        H949   1.084       .  S
C946        O950   1.371       .  S
O948        H952   0.991       .  S
O950        H951   0.990       .  S
C953        C954   1.408       .  A
C953        C958   1.417       .  A
C954        C955   1.404       .  A
C954        H959   1.083       .  S
C955        C956   1.407       .  A
C955        O960   1.371       .  S
C956        C957   1.401       .  A
C957        C958   1.399       .  A
C957        H961   1.084       .  S
C958        O962   1.372       .  S
O960        H964   0.992       .  S
O962        H963   0.992       .  S
C965        C966   1.411       .  A
C965        C970   1.404       .  A
C966        C967   1.402       .  A
C966        H971   1.084       .  S
C967        C968   1.409       .  A
C967        O972   1.371       .  S
C968        C969   1.414       .  A
C969        C970   1.402       .  A
C969        H973   1.083       .  S
C970        O974   1.371       .  S
O972        H976   0.991       .  S
O974        H975   0.992       .  S
C977        C978   1.403       .  A
C977        C982   1.407       .  A
C978        C979   1.402       .  A
C978        H983   1.084       .  S
C979        C980   1.413       .  A
C979        O984   1.371       .  S
C980        C981   1.406       .  A
C981        C982   1.398       .  A
C981        H985   1.084       .  S
C982        O986   1.372       .  S
O984        H988   0.991       .  S
O986        H987   0.991       .  S
C989        C990   1.410       .  A
C989        C994   1.416       .  A
C990        C991   1.404       .  A
C990        H995   1.083       .  S
C991        C992   1.409       .  A
C991        O996   1.371       .  S
C992        C993   1.403       .  A
C993        C994   1.402       .  A
C993        H997   1.084       .  S
C994        O998   1.371       .  S
O996       H1000   0.992       .  S
O998        H999   0.992       .  S
C1001      C1002   1.397       .  A
C1001      C1006   1.410       .  A
C1002      C1003   1.399       .  A
C1002      H1007   1.084       .  S
C1003      C1004   1.419       .  A
C1003      O1008   1.372       .  S
C1004      C1005   1.404       .  A
C1005      C1006   1.398       .  A
C1005      H1009   1.083       .  S
C1006      O1010   1.371       .  S
O1008      H1012   0.992       .  S
O1010      H1011   0.990       .  S
C1013      C1014   1.405       .  A
C1013      C1018   1.407       .  A
C1014      C1015   1.398       .  A
C1014      H1019   1.084       .  S
C1015      C1016   1.406       .  A
C1015      O1020   1.373       .  S
C1016      C1017   1.404       .  A
C1017      C1018   1.396       .  A
C1017      H1021   1.081       .  S
C1018      O1022   1.372       .  S
O1020      H1024   0.991       .  S
O1022      H1023   0.991       .  S
C1025      C1026   1.404       .  A
C1025      C1030   1.409       .  A
C1026      C1027   1.398       .  A
C1026      H1031   1.084       .  S
C1027      C1028   1.408       .  A
C1027      O1032   1.373       .  S
C1028      C1029   1.404       .  A
C1029      C1030   1.396       .  A
C1029      H1033   1.084       .  S
C1030      O1034   1.372       .  S
O1032      H1036   0.991       .  S
O1034      H1035   0.991       .  S
C1037      C1038   1.400       .  A
C1037      C1042   1.410       .  A
C1038      C1039   1.397       .  A
C1038      H1043   1.084       .  S
C1039      C1040   1.411       .  A
C1039      O1044   1.374       .  S
C1040      C1041   1.404       .  A
C1041      C1042   1.397       .  A
C1041      H1045   1.084       .  S
C1042      O1046   1.372       .  S
O1044      H1048   0.993       .  S
O1046      H1047   0.991       .  S
C1049      C1050   1.391       .  A
C1049      C1054   1.412       .  A
C1050      C1051   1.393       .  A
C1050      H1055   1.084       .  S
C1051      C1052   1.422       .  A
C1051      O1056   1.372       .  S
C1052      C1053   1.399       .  A
C1053      C1054   1.396       .  A
C1053      H1057   1.084       .  S
C1054      O1058   1.372       .  S
O1056      H1060   0.992       .  S
O1058      H1059   0.990       .  S
C1061      C1062   1.396       .  A
C1061      C1066   1.405       .  A
C1062      C1063   1.397       .  A
C1062      H1067   1.084       .  S
C1063      C1064   1.412       .  A
C1063      O1068   1.374       .  S
C1064      C1065   1.403       .  A
C1065      C1066   1.397       .  A
C1065      H1069   1.084       .  S
C1066      O1070   1.370       .  S
O1068      H1072   0.993       .  S
O1070      H1071   0.991       .  S
C1073      C1074   1.404       .  A
C1073      C1078   1.401       .  A
C1074      C1075   1.396       .  A
C1074      H1079   1.084       .  S
C1075      C1076   1.407       .  A
C1075      O1080   1.371       .  S
C1076      C1077   1.406       .  A
C1077      C1078   1.390       .  A
C1077      H1081   1.083       .  S
C1078      O1082   1.372       .  S
O1080      H1084   0.992       .  S
O1082      H1083   0.992       .  S
C1085      C1086   1.411       .  A
C1085      C1090   1.411       .  A
C1086      C1087   1.405       .  A
C1086      H1091   1.084   1_545  S
C1087      C1088   1.406       .  A
C1087      O1092   1.372       .  S
C1088      C1089   1.409       .  A
C1089      C1090   1.415       .  A
C1089      H1093   1.083       .  S
C1090      O1094   1.371       .  S
O1092      H1096   0.992       .  S
O1094      H1095   0.992       .  S
C1097      C1098   1.404       .  A
C1097      C1102   1.404       .  A
C1098      C1099   1.394       .  A
C1098      H1103   1.084       .  S
C1099      C1100   1.410       .  A
C1099      O1104   1.372       .  S
C1100      C1101   1.406       .  A
C1101      C1102   1.396       .  A
C1101      H1105   1.084       .  S
C1102      O1106   1.373       .  S
O1104      H1108   0.991       .  S
O1106      H1107   0.991       .  S
C1109      C1110   1.401       .  A
C1109      C1114   1.401       .  A
C1110      C1111   1.386       .  A
C1110      H1115   1.084       .  S
C1111      C1112   1.397       .  A
C1111      O1116   1.373       .  S
C1112      C1113   1.402       .  A
C1113      C1114   1.395       .  A
C1113      H1117   1.084       .  S
C1114      O1118   1.371       .  S
O1116      H1120   0.991       .  S
O1118      H1119   0.992       .  S
C1121      C1122   1.412       .  A
C1121      C1126   1.416       .  A
C1122      C1123   1.409       .  A
C1122      H1127   1.083       .  S
C1123      C1124   1.408       .  A
C1123      O1128   1.371       .  S
C1124      C1125   1.407       .  A
C1125      C1126   1.408       .  A
C1125      H1129   1.084   1_565  S
C1126      O1130   1.371       .  S
O1128      H1132   0.992       .  S
O1130      H1131   0.992       .  S
C1133      C1134   1.401       .  A
C1133      C1138   1.414       .  A
C1134      C1135   1.402       .  A
C1134      H1139   1.084       .  S
C1135      C1136   1.414       .  A
C1135      O1140   1.372       .  S
C1136      C1137   1.401       .  A
C1137      C1138   1.404       .  A
C1137      H1141   1.084       .  S
C1138      O1142   1.372       .  S
O1140      H1144   0.991   1_554  S
O1142      H1143   0.992       .  S
C1145      C1146   1.405       .  A
C1145      C1150   1.409       .  A
C1146      C1147   1.407       .  A
C1146      H1151   1.084   1_556  S
C1147      C1148   1.417       .  A
C1147      O1152   1.371       .  S
C1148      C1149   1.409       .  A
C1149      C1150   1.404       .  A
C1149      H1153   1.083       .  S
C1150      O1154   1.372   1_565  S
O1152      H1156   0.992   1_556  S
O1154      H1155   0.992   1_545  S
C1157      C1158   1.404       .  A
C1157      C1162   1.409       .  A
C1158      C1159   1.404       .  A
C1158      H1163   1.084   1_554  S
C1159      C1160   1.411       .  A
C1159      O1164   1.371       .  S
C1160      C1161   1.405       .  A
C1161      C1162   1.402       .  A
C1161      H1165   1.084       .  S
C1162      O1166   1.372       .  S
O1164      H1168   0.991   1_554  S
O1166      H1167   0.991       .  S
C1169      C1170   1.414       .  A
C1169      C1174   1.411       .  A
C1170      C1171   1.395       .  A
C1170      H1175   1.083       .  S
C1171      C1172   1.401       .  A
C1171      O1176   1.372       .  S
C1172      C1173   1.414       .  A
C1173      C1174   1.412       .  A
C1173      H1177   1.083   1_545  S
C1174      O1178   1.371       .  S
O1176      H1180   0.991       .  S
O1178      H1179   0.992   1_545  S
C1181      C1182   1.413       .  A
C1181      C1186   1.403       .  A
C1182      C1183   1.406       .  A
C1182      H1187   1.084   1_545  S
C1183      C1184   1.409       .  A
C1183      O1188   1.371       .  S
C1184      C1185   1.414       .  A
C1185      C1186   1.400       .  A
C1185      H1189   1.083       .  S
C1186      O1190   1.371       .  S
O1188      H1192   0.991       .  S
O1190      H1191   0.991       .  S
C1193      C1194   1.402       .  A
C1193      C1198   1.413       .  A
C1194      C1195   1.404       .  A
C1194      H1199   1.084       .  S
C1195      C1196   1.416       .  A
C1195      O1200   1.372       .  S
C1196      C1197   1.404       .  A
C1197      C1198   1.407       .  A
C1197      H1201   1.083       .  S
C1198      O1202   1.372       .  S
O1200      H1204   0.992       .  S
O1202      H1203   0.992       .  S
C1205      C1206   1.410       .  A
C1205      C1210   1.413       .  A
C1206      C1207   1.409       .  A
C1206      H1211   1.083       .  S
C1207      C1208   1.408       .  A
C1207      O1212   1.371       .  S
C1208      C1209   1.405       .  A
C1209      C1210   1.401       .  A
C1209      H1213   1.084       .  S
C1210      O1214   1.372       .  S
O1212      H1216   0.992       .  S
O1214      H1215   0.991       .  S
C1217      C1218   1.399       .  A
C1217      C1222   1.418       .  A
C1218      C1219   1.403       .  A
C1218      H1223   1.084       .  S
C1219      C1220   1.421       .  A
C1219      O1224   1.372       .  S
C1220      C1221   1.401       .  A
C1221      C1222   1.403       .  A
C1221      H1225   1.083       .  S
C1222      O1226   1.372   1_554  S
O1224      H1228   0.992       .  S
O1226      H1227   0.992       .  S
C1229      C1230   1.399       .  A
C1229      C1234   1.416       .  A
C1230      C1231   1.405       .  A
C1230      H1235   1.084       .  S
C1231      C1232   1.421       .  A
C1231      O1236   1.372       .  S
C1232      C1233   1.403       .  A
C1233      C1234   1.405       .  A
C1233      H1237   1.083       .  S
C1234      O1238   1.372       .  S
O1236      H1240   0.992       .  S
O1238      H1239   0.991       .  S
C1241      C1242   1.412       .  A
C1241      C1246   1.404       .  A
C1242      C1243   1.411       .  A
C1242      H1247   1.083       .  S
C1243      C1244   1.410       .  A
C1243      O1248   1.370       .  S
C1244      C1245   1.415       .  A
C1245      C1246   1.400       .  A
C1245      H1249   1.083       .  S
C1246      O1250   1.372       .  S
O1248      H1252   0.992       .  S
O1250      H1251   0.992       .  S
C1253      C1254   1.405       .  A
C1253      C1258   1.410       .  A
C1254      C1255   1.394       .  A
C1254      H1259   1.084       .  S
C1255      C1256   1.409       .  A
C1255      O1260   1.372       .  S
C1256      C1257   1.404       .  A
C1257      C1258   1.398       .  A
C1257      H1261   1.084       .  S
C1258      O1262   1.373       .  S
O1260      H1264   0.992       .  S
O1262      H1263   0.992       .  S
C1265      C1266   1.403       .  A
C1265      C1270   1.401       .  A
C1266      C1267   1.396       .  A
C1266      H1271   1.084       .  S
C1267      C1268   1.401       .  A
C1267      O1272   1.371       .  S
C1268      C1269   1.399       .  A
C1269      C1270   1.388       .  A
C1269      H1273   1.084       .  S
C1270      O1274   1.373       .  S
O1272      H1276   0.992       .  S
O1274      H1275   0.991       .  S
C1277      C1278   1.401       .  A
C1277      C1282   1.417       .  A
C1278      C1279   1.396       .  A
C1278      H1283   1.084       .  S
C1279      C1280   1.412       .  A
C1279      O1284   1.371       .  S
C1280      C1281   1.397       .  A
C1281      C1282   1.392       .  A
C1281      H1285   1.084       .  S
C1282      O1286   1.372       .  S
O1284      H1288   0.991       .  S
O1286      H1287   0.991       .  S
C1289      C1290   1.406       .  A
C1289      C1294   1.406       .  A
C1290      C1291   1.396       .  A
C1290      H1295   1.084       .  S
C1291      C1292   1.409       .  A
C1291      O1296   1.372       .  S
C1292      C1293   1.406       .  A
C1293      C1294   1.396       .  A
C1293      H1297   1.084       .  S
C1294      O1298   1.372       .  S
O1296      H1300   0.991       .  S
O1298      H1299   0.992       .  S
C1301      C1302   1.404       .  A
C1301      C1306   1.400       .  A
C1302      C1303   1.385       .  A
C1302      H1307   1.084       .  S
C1303      C1304   1.396       .  A
C1303      O1308   1.373       .  S
C1304      C1305   1.403       .  A
C1305      C1306   1.392       .  A
C1305      H1309   1.085       .  S
C1306      O1310   1.371       .  S
O1308      H1312   0.992       .  S
O1310      H1311   1.002       .  S
C1313      C1314   1.411       .  A
C1313      C1318   1.409       .  A
C1314      C1315   1.397       .  A
C1314      H1319   1.084       .  S
C1315      C1316   1.402       .  A
C1315      O1320   1.371       .  S
C1316      C1317   1.402       .  A
C1317      C1318   1.392       .  A
C1317      H1321   1.084       .  S
C1318      O1322   1.372       .  S
O1320      H1324   0.991       .  S
O1322      H1323   0.991       .  S
C1325      C1326   1.402       .  A
C1325      C1330   1.395       .  A
C1326      C1327   1.391       .  A
C1326      H1331   1.083       .  S
C1327      C1328   1.403       .  A
C1327      O1332   1.372       .  S
C1328      C1329   1.412       .  A
C1329      C1330   1.392       .  A
C1329      H1333   1.084       .  S
C1330      O1334   1.371       .  S
O1332      H1336   0.992       .  S
O1334      H1335   0.991       .  S
C1337      C1338   1.406       .  A
C1337      C1342   1.399       .  A
C1338      C1339   1.399       .  A
C1338      H1343   1.084       .  S
C1339      C1340   1.405       .  A
C1339      O1344   1.372       .  S
C1340      C1341   1.410       .  A
C1341      C1342   1.393       .  A
C1341      H1345   1.084       .  S
C1342      O1346   1.372       .  S
O1344      H1348   0.990       .  S
O1346      H1347   0.992       .  S
C1349      C1350   1.404       .  A
C1349      C1354   1.404       .  A
C1350      C1351   1.397       .  A
C1350      H1355   1.083       .  S
C1351      C1352   1.408       .  A
C1351      O1356   1.371       .  S
C1352      C1353   1.408       .  A
C1353      C1354   1.392       .  A
C1353      H1357   1.084       .  S
C1354      O1358   1.372       .  S
O1356      H1360   0.992       .  S
O1358      H1359   0.991       .  S
C1361      C1362   1.411       .  A
C1361      C1366   1.413       .  A
C1362      C1363   1.410       .  A
C1362      H1367   1.083       .  S
C1363      C1364   1.409       .  A
C1363      O1368   1.371       .  S
C1364      C1365   1.402       .  A
C1365      C1366   1.401       .  A
C1365      H1369   1.084       .  S
C1366      O1370   1.372       .  S
O1368      H1372   0.991       .  S
O1370      H1371   0.992       .  S
C1373      C1374   1.403       .  A
C1373      C1378   1.415       .  A
C1374      C1375   1.405       .  A
C1374      H1379   1.083       .  S
C1375      C1376   1.411       .  A
C1375      O1380   1.372   1_655  S
C1376      C1377   1.399       .  A
C1377      C1378   1.401       .  A
C1377      H1381   1.084       .  S
C1378      O1382   1.373       .  S
O1380      H1384   0.992       .  S
O1382      H1383   0.992       .  S
C1385      C1386   1.400       .  A
C1385      C1390   1.417       .  A
C1386      C1387   1.397       .  A
C1386      H1391   1.084       .  S
C1387      C1388   1.408       .  A
C1387      O1392   1.371       .  S
C1388      C1389   1.392       .  A
C1389      C1390   1.388       .  A
C1389      H1393   1.084       .  S
C1390      O1394   1.372       .  S
O1392      H1396   0.991       .  S
O1394      H1395   0.991       .  S
C1397      C1398   1.402       .  A
C1397      C1402   1.403       .  A
C1398      C1399   1.391       .  A
C1398      H1403   1.083       .  S
C1399      C1400   1.403       .  A
C1399      O1404   1.373       .  S
C1400      C1401   1.403       .  A
C1401      C1402   1.391       .  A
C1401      H1405   1.082       .  S
C1402      O1406   1.372       .  S
O1404      H1408   0.992       .  S
O1406      H1407   0.990       .  S
C1409      C1410   1.402       .  A
C1409      C1414   1.413       .  A
C1410      C1411   1.398       .  A
C1410      H1415   1.084       .  S
C1411      C1412   1.412       .  A
C1411      O1416   1.373       .  S
C1412      C1413   1.397       .  A
C1413      C1414   1.390       .  A
C1413      H1417   1.084       .  S
C1414      O1418   1.373       .  S
O1416      H1420   0.993       .  S
O1418      H1419   0.992       .  S
C1421      C1422   1.403       .  A
C1421      C1426   1.413       .  A
C1422      C1423   1.403       .  A
C1422      H1427   1.084       .  S
C1423      C1424   1.411       .  A
C1423      O1428   1.372       .  S
C1424      C1425   1.403       .  A
C1425      C1426   1.406       .  A
C1425      H1429   1.083       .  S
C1426      O1430   1.371   1_655  S
O1428      H1432   0.991       .  S
O1430      H1431   0.992       .  S
C1433      C1434   1.403       .  A
C1433      C1438   1.406       .  A
C1434      C1435   1.403       .  A
C1434      H1439   1.084   1_455  S
C1435      C1436   1.414       .  A
C1435      O1440   1.372       .  S
C1436      C1437   1.407       .  A
C1437      C1438   1.399       .  A
C1437      H1441   1.084       .  S
C1438      O1442   1.371       .  S
O1440      H1444   0.991   1_455  S
O1442      H1443   0.991       .  S
C1445      C1446   1.406       .  A
C1445      C1450   1.408       .  A
C1446      C1447   1.401       .  A
C1446      H1451   1.084       .  S
C1447      C1448   1.412       .  A
C1447      O1452   1.372       .  S
C1448      C1449   1.408       .  A
C1449      C1450   1.406       .  A
C1449      H1453   1.083       .  S
C1450      O1454   1.372       .  S
O1452      H1456   0.992       .  S
O1454      H1455   0.992   1_554  S
C1457      C1458   1.402       .  A
C1457      C1462   1.413       .  A
C1458      C1459   1.406       .  A
C1458      H1463   1.084       .  S
C1459      C1460   1.419       .  A
C1459      O1464   1.371       .  S
C1460      C1461   1.408       .  A
C1461      C1462   1.406       .  A
C1461      H1465   1.083       .  S
C1462      O1466   1.371   1_556  S
O1464      H1468   0.991   1_455  S
O1466      H1467   0.992       .  S
C1469      C1470   1.404       .  A
C1469      C1474   1.409       .  A
C1470      C1471   1.405       .  A
C1470      H1475   1.084       .  S
C1471      C1472   1.418       .  A
C1471      O1476   1.372       .  S
C1472      C1473   1.409       .  A
C1473      C1474   1.404       .  A
C1473      H1477   1.083       .  S
C1474      O1478   1.371       .  S
O1476      H1480   0.990       .  S
O1478      H1479   0.991       .  S
C1481      C1482   1.409       .  A
C1481      C1486   1.403       .  A
C1482      C1483   1.402       .  A
C1482      H1487   1.084       .  S
C1483      C1484   1.411       .  A
C1483      O1488   1.371       .  S
C1484      C1485   1.413       .  A
C1485      C1486   1.402       .  A
C1485      H1489   1.083       .  S
C1486      O1490   1.372       .  S
O1488      H1492   0.992       .  S
O1490      H1491   0.991   1_655  S
C1493      C1494   1.405       .  A
C1493      C1498   1.408       .  A
C1494      C1495   1.400       .  A
C1494      H1499   1.084       .  S
C1495      C1496   1.411       .  A
C1495      O1500   1.372       .  S
C1496      C1497   1.409       .  A
C1497      C1498   1.409       .  A
C1497      H1501   1.083       .  S
C1498      O1502   1.371       .  S
O1500      H1504   0.991       .  S
O1502      H1503   0.992       .  S
C1505      C1506   1.407       .  A
C1505      C1510   1.413       .  A
C1506      C1507   1.403       .  A
C1506      H1511   1.083       .  S
C1507      C1508   1.408       .  A
C1507      O1512   1.372       .  S
C1508      C1509   1.404       .  A
C1509      C1510   1.404       .  A
C1509      H1513   1.084       .  S
C1510      O1514   1.371       .  S
O1512      H1516   0.990       .  S
O1514      H1515   0.991       .  S
C1517      C1518   1.401       .  A
C1517      C1522   1.415       .  A
C1518      C1519   1.401       .  A
C1518      H1523   1.084       .  S
C1519      C1520   1.414       .  A
C1519      O1524   1.372   1_556  S
C1520      C1521   1.398       .  A
C1521      C1522   1.399       .  A
C1521      H1525   1.084       .  S
C1522      O1526   1.372       .  S
O1524      H1528   0.987       .  S
O1526      H1527   0.991       .  S
C1529      C1530   1.414       .  A
C1529      C1534   1.409       .  A
C1530      C1531   1.407       .  A
C1530      H1535   1.083       .  S
C1531      C1532   1.405       .  A
C1531      O1536   1.371       .  S
C1532      C1533   1.410       .  A
C1533      C1534   1.403       .  A
C1533      H1537   1.084       .  S
C1534      O1538   1.371       .  S
O1536      H1540   0.992       .  S
O1538      H1539   0.992       .  S
