geometry optimzed in LAMMPS
_audit_creation_date              2020-11-30 
_audit_creation_method            'lammps2cif' 
_symmetry_space_group_name_H-M    'P1' 
_symmetry_Int_Tables_number       1 
_symmetry_cell_setting            triclinic 
loop_ 
_symmetry_equiv_pos_as_xyz 
  x,y,z 
_cell_length_a                    28.03426946 
_cell_length_b                    27.987817161630357 
_cell_length_c                    27.956446384670908 
_cell_angle_alpha                 90.02004078453537 
_cell_angle_beta                  89.69077672474236 
_cell_angle_gamma                 90.2486723525913 
loop_ 
_atom_site_label 
_atom_site_type_symbol 
_atom_site_fract_x 
_atom_site_fract_y 
_atom_site_fract_z 
_atom_site_charge 
C1          C  0.15019870  0.74633910  0.95988088     0.81200
N2          N  0.17423004  0.74992766  0.00265693    -0.77100
C3          C  0.14973697  0.74987297  0.04557740     0.83600
N4          N  0.10094111  0.74672680  0.04481397    -0.77100
C5          C  0.07643517  0.74387123  0.00282881     0.83700
N6          N  0.10140878  0.74332869  0.96080493    -0.78800
C7          C  0.44056930  0.62501357  0.04178747     0.81200
N8          N  0.44000893  0.57673210  0.04458201    -0.77100
C9          C  0.44528637  0.55021893  0.00428252     0.83600
N10         N  0.44752911  0.57228287  0.96105881    -0.77100
C11         C  0.44795043  0.62067043  0.95891835     0.83700
N12         N  0.44483545  0.64646350  0.99920423    -0.78800
C13         C  0.84452664  0.21918430  0.03661077     0.81200
N14         N  0.89331008  0.22231751  0.03660854    -0.77100
C15         C  0.91915328  0.22303942  0.99514434     0.83600
N16         N  0.89546392  0.22144606  0.95260936    -0.77100
C17         C  0.84667164  0.21817051  0.95100142     0.83700
N18         N  0.82133861  0.21674999  0.99338867    -0.78800
C19         C  0.55532505  0.33634139  0.96177056     0.81200
N20         N  0.54975122  0.31514096  0.00446564    -0.77100
C21         C  0.54616418  0.34140066  0.04457571     0.83600
N22         N  0.54828206  0.38980188  0.04204960    -0.77100
C23         C  0.55241557  0.41145250  0.99871591     0.83700
N24         N  0.55720446  0.38449297  0.95880006    -0.78800
C25         C  0.75891635  0.94132472  0.14982619     0.81200
N26         N  0.75874904  0.98472997  0.17298461    -0.77100
C27         C  0.75469388  0.02665380  0.14747066     0.83600
N28         N  0.75153943  0.02445696  0.09864849    -0.77100
C29         C  0.75241307  0.98182988  0.07503123     0.83700
N30         N  0.75563555  0.94072870  0.10095069    -0.78800
C31         C  0.63537208  0.03325761  0.44555870     0.81200
N32         N  0.58714952  0.02881664  0.44551938    -0.77100
C33         C  0.56692396  0.98457465  0.44635441     0.83600
N34         N  0.59509669  0.94546079  0.44440904    -0.77100
C35         C  0.64307901  0.95041677  0.44451345     0.83700
N36         N  0.66283697  0.99409875  0.44501445    -0.78800
C37         C  0.23803025  0.02286358  0.85295292     0.81200
N38         N  0.24234954  0.02369452  0.90170080    -0.77100
C39         C  0.24630231  0.98283118  0.92780569     0.83600
N40         N  0.24685235  0.93994015  0.90440107    -0.77100
C41         C  0.24267947  0.93742217  0.85555910     0.83700
N42         N  0.23794269  0.97931452  0.83000312    -0.78800
C43         C  0.36293795  0.94161861  0.55831305     0.81200
N44         N  0.33726785  0.98184863  0.55754813    -0.77100
C45         C  0.35876407  0.02465013  0.55684918     0.83600
N46         N  0.40709228  0.02759536  0.55648715    -0.77100
C47         C  0.43345416  0.98697594  0.55488168     0.83700
N48         N  0.41118856  0.94387152  0.55741348    -0.78800
C49         C  0.85335665  0.74208991  0.04566289     0.81200
N50         N  0.90220676  0.74025386  0.04478535    -0.77100
C51         C  0.92715425  0.73780474  0.00282363     0.83600
N52         N  0.90256649  0.73614475  0.96086229    -0.77100
C53         C  0.85372843  0.73790526  0.96008305     0.83700
N54         N  0.82923577  0.74127729  0.00285826    -0.78800
C55         C  0.55398605  0.62324888  0.05509874     0.81200
N56         N  0.55286658  0.57527832  0.06211736    -0.77100
C57         C  0.55603797  0.54541563  0.02400158     0.83600
N58         N  0.56363972  0.56390271  0.97959566    -0.77100
C59         C  0.56456207  0.61182062  0.97323006     0.83700
N60         N  0.55950378  0.64097873  0.01085371    -0.78800
C61         C  0.14317498  0.21948612  0.95862737     0.81200
N62         N  0.16655811  0.22117950  0.00181583    -0.77100
C63         C  0.14139676  0.22499711  0.04420337     0.83600
N64         N  0.09248503  0.22644038  0.04255257    -0.77100
C65         C  0.06862577  0.22404512  0.00006928     0.83700
N66         N  0.09435109  0.22105364  0.95865124    -0.78800
C67         C  0.44412722  0.33929173  0.94430600     0.81200
N68         N  0.44630975  0.38735618  0.93780258    -0.77100
C69         C  0.44289925  0.41683057  0.97627882     0.83600
N70         N  0.43392676  0.39799899  0.02019777    -0.77100
C71         C  0.43148501  0.35015486  0.02592281     0.83700
N72         N  0.43662006  0.32124162  0.98814543    -0.78800
C73         C  0.75964899  0.93245075  0.85289477     0.81200
N74         N  0.75617406  0.93450074  0.90178472    -0.77100
C75         C  0.75361027  0.97710328  0.92548068     0.83600
N76         N  0.75367703  0.01844614  0.89965361    -0.77100
C77         C  0.75703951  0.01826080  0.85077244     0.83700
N78         N  0.76036335  0.97482081  0.82749968    -0.78800
C79         C  0.63523644  0.00361323  0.56002653     0.81200
N80         N  0.58716997  0.99971188  0.55948724    -0.77100
C81         C  0.56626823  0.95607576  0.55518318     0.83600
N82         N  0.59394732  0.91631640  0.55465981    -0.77100
C83         C  0.64221861  0.92090150  0.55514453     0.83700
N84         N  0.66229300  0.96437468  0.55780421    -0.78800
C85         C  0.23759930  0.03401877  0.15017270     0.81200
N86         N  0.23614225  0.99153746  0.17522684    -0.77100
C87         C  0.23975605  0.94838289  0.15160071     0.83600
N88         N  0.24419725  0.94845733  0.10287851    -0.77100
C89         C  0.24505309  0.98983244  0.07732826     0.83700
N90         N  0.24215637  0.03230887  0.10127982    -0.73200
C91         C  0.36583891  0.95594580  0.43969294     0.81200
N92         N  0.33718870  0.99402937  0.44216240    -0.77100
C93         C  0.35543966  0.03826243  0.44468990     0.83600
N94         N  0.40331977  0.04490911  0.44499271    -0.77100
C95         C  0.43271851  0.00660949  0.44410418     0.83700
N96         N  0.41385204  0.96192011  0.43973731    -0.78800
C97         C  0.95165054  0.12474615  0.75858465     0.81200
N98         N  0.95340335  0.07588008  0.75658779    -0.77100
C99         C  0.99576265  0.05205997  0.75758607     0.83600
N100        N  0.03715853  0.07789737  0.75978092    -0.77100
C101        C  0.03715306  0.12687676  0.76200530     0.83700
N102        N  0.99389579  0.15013907  0.76171952    -0.78800
C103        C  0.96152822  0.41373728  0.62962104     0.81200
N104        N  0.96528751  0.41695909  0.58148634    -0.77100
C105        C  0.00869618  0.42408686  0.56081202     0.83600
N106        N  0.04839408  0.42490257  0.58855789    -0.77100
C107        C  0.04377775  0.42227566  0.63687236     0.83700
N108        N  0.00057503  0.41664241  0.65679948    -0.78800
C109        C  0.04496451  0.83020581  0.76319101     0.81200
N110        N  0.04246278  0.87899812  0.75976692    -0.77100
C111        C  0.99971710  0.90221742  0.75942245     0.83600
N112        N  0.95868029  0.87584498  0.76164897    -0.77100
C113        C  0.95933973  0.82695676  0.76502068     0.83700
N114        N  0.00294420  0.80428826  0.76610032    -0.78800
C115        C  0.96466916  0.53436804  0.63982282     0.81200
N116        N  0.96907849  0.53644593  0.59150493    -0.77100
C117        C  0.01323324  0.53541038  0.57109124     0.83600
N118        N  0.05229357  0.53546663  0.59920160    -0.77100
C119        C  0.04739445  0.53381260  0.64726213     0.83700
N120        N  0.00379162  0.53305094  0.66718746    -0.78800
C121        C  0.04480969  0.84210923  0.24196873     0.81200
N122        N  0.00234290  0.81706976  0.23899465    -0.77100
C123        C  0.95917663  0.84057782  0.23972986     0.83600
N124        N  0.95942928  0.88946938  0.24270151    -0.77100
C125        C  0.00094572  0.91502932  0.24497612     0.83700
N126        N  0.04326806  0.89099008  0.24509228    -0.78800
C127        C  0.04046422  0.54944982  0.36951637     0.81200
N128        N  0.00212051  0.54609629  0.34135899    -0.77100
C129        C  0.95831839  0.54215217  0.36030861     0.83600
N130        N  0.95235122  0.54097626  0.40830773    -0.77100
C131        C  0.99090736  0.54215707  0.43717879     0.83700
N132        N  0.03518016  0.54813843  0.41775859    -0.78800
C133        C  0.95181307  0.13674504  0.23838581     0.81200
N134        N  0.95397982  0.08797297  0.24225005    -0.77100
C135        C  0.99655650  0.06469354  0.24526860     0.83600
N136        N  0.03767465  0.09091077  0.24523004    -0.77100
C137        C  0.03737005  0.13970118  0.24137116     0.83700
N138        N  0.99398003  0.16254045  0.23763164    -0.78800
C139        C  0.94270294  0.43237029  0.35239774     0.81200
N140        N  0.98585296  0.43215425  0.33136227    -0.77100
C141        C  0.02560487  0.43102693  0.35782630     0.83600
N142        N  0.02239557  0.42988644  0.40610989    -0.77100
C143        C  0.97900554  0.43101096  0.42781792     0.83700
N144        N  0.93897354  0.43075650  0.40075780    -0.78800
C145        C  0.26097187  0.53498382  0.35479078     0.81200
N146        N  0.25754349  0.53278809  0.40375828    -0.77100
C147        C  0.25614425  0.48995655  0.42725342     0.83600
N148        N  0.25725809  0.44887903  0.40106893    -0.77100
C149        C  0.26064519  0.44942811  0.35217497     0.83700
N150        N  0.26282168  0.49288155  0.32918377    -0.78800
C151        C  0.14141071  0.44122890  0.05175872     0.81200
N152        N  0.09313139  0.43793471  0.05164353    -0.77100
C153        C  0.06634019  0.47790581  0.05697248     0.83600
N154        N  0.08814065  0.52040434  0.06582190    -0.77100
C155        C  0.13639286  0.52302736  0.06626434     0.83700
N156        N  0.16254722  0.48365577  0.05914595    -0.78800
O157        O  0.15039441  0.73494383  0.13027562    -0.85500
O158        O  0.38627328  0.81527813  0.23379373    -0.85700
O159        O  0.25527119  0.86433492  0.15211319    -0.87400
O160        O  0.33153041  0.72961878  0.12196020    -0.86100
O161        O  0.33544346  0.65569259  0.15810404    -0.85700
O162        O  0.22660688  0.89747432  0.22146022    -0.87100
O163        O  0.34743854  0.82275970  0.16159563    -0.85600
O164        O  0.21863454  0.76599642  0.09667633    -0.85100
Zr165      Zr  0.27408738  0.77885642  0.16548331     2.84300
O166        O  0.32169415  0.72899252  0.21421335    -1.07100
O167        O  0.20021082  0.79216146  0.20205766    -1.07800
C168        C  0.17484979  0.75048934  0.09370873     1.07600
C169        C  0.38101385  0.83236538  0.19112241     1.07500
C170        C  0.24047666  0.90060694  0.17711150     1.10500
C171        C  0.34862116  0.68716482  0.12743503     1.08300
H172        H  0.30324620  0.84526878  0.23738906     0.33800
O173        O  0.28921747  0.81393585  0.24046016    -1.28100
H174        H  0.23674056  0.69108828  0.14867708     0.33500
O175        O  0.23963860  0.70459657  0.18021025    -1.29700
O176        O  0.35493432  0.74419711  0.37320639    -0.85500
O177        O  0.12334091  0.65993106  0.26942000    -0.87000
O178        O  0.26712371  0.86853586  0.33448755    -0.85600
O179        O  0.37342078  0.63953103  0.24569799    -0.85600
O180        O  0.23588783  0.60751457  0.17596428    -0.85400
O181        O  0.12928448  0.84198453  0.25865769    -0.85200
O182        O  0.17599594  0.75768700  0.38569278    -0.85500
O183        O  0.24646204  0.61981668  0.35518283    -0.85000
O184        O  0.17089214  0.83110688  0.34855660    -0.86100
O185        O  0.27554192  0.58653378  0.28600957    -0.85200
O186        O  0.34086165  0.83244577  0.33694047    -0.85600
O187        O  0.09639812  0.77336627  0.22793980    -0.85300
O188        O  0.16287896  0.64498653  0.17108035    -0.85000
O189        O  0.40743055  0.70808136  0.27505654    -0.85400
O190        O  0.28565026  0.71646116  0.40737269    -0.85700
O191        O  0.16071901  0.65651427  0.34260838    -0.87000
Zr192      Zr  0.33948940  0.76362274  0.28734652     2.83100
Zr193      Zr  0.16479536  0.71747735  0.21631365     2.83500
Zr194      Zr  0.21536370  0.82793453  0.27608695     2.84100
Zr195      Zr  0.28747862  0.65413197  0.22895769     2.83400
Zr196      Zr  0.22967126  0.70562171  0.33980103     2.84200
O197        O  0.21468852  0.67044115  0.26532893    -1.07600
O198        O  0.26524390  0.77857534  0.32289847    -1.07100
C199        C  0.33006431  0.72945144  0.40993830     1.07600
C200        C  0.12960843  0.64304812  0.31217548     1.10200
C201        C  0.30985056  0.86279754  0.35101521     1.07700
C202        C  0.41002934  0.66404856  0.26061250     1.08100
C203        C  0.19316995  0.61273986  0.15948930     1.07700
C204        C  0.09308951  0.81731290  0.24289096     1.07200
C205        C  0.15911383  0.80034592  0.38037878     1.07700
C206        C  0.26111095  0.58341906  0.33023510     1.07200
H207        H  0.14835002  0.75551175  0.30354106     0.33800
O208        O  0.17979972  0.75278676  0.28986557    -1.28700
H209        H  0.32280870  0.66996298  0.32239489     0.33900
O210        O  0.30300082  0.69001947  0.30273441    -1.30100
C211        C  0.34616559  0.25085966  0.45741731     0.81200
N212        N  0.39495417  0.24750943  0.45770352    -0.77100
C213        C  0.41988905  0.24364527  0.49932214     0.83600
N214        N  0.39531954  0.24214892  0.54158668    -0.77100
C215        C  0.34655791  0.24528915  0.54304508     0.83700
N216        N  0.32210483  0.24997868  0.50056465    -0.78800
C217        C  0.04905311  0.13219153  0.45393409     0.81200
N218        N  0.05130135  0.08398810  0.44906842    -0.77100
C219        C  0.05256167  0.05592697  0.48862873     0.83600
N220        N  0.05456187  0.07648579  0.53244688    -0.77100
C221        C  0.05262820  0.12447088  0.53679766     0.83700
N222        N  0.04976145  0.15194478  0.49765818    -0.78800
O223        O  0.25142528  0.10671076  0.85125231    -0.85500
O224        O  0.16595477  0.21662631  0.61973026    -0.85700
O225        O  0.12120739  0.12854033  0.74641288    -0.87400
O226        O  0.25450150  0.10314652  0.66587034    -0.86100
O227        O  0.32851090  0.13906980  0.66111565    -0.85700
O228        O  0.08862410  0.19725146  0.77686778    -0.87100
O229        O  0.15960409  0.14287710  0.65642863    -0.85600
O230        O  0.22025551  0.07362616  0.78311942    -0.85100
Zr231      Zr  0.20642200  0.14325220  0.72752001     2.84300
O232        O  0.25589990  0.19316859  0.67966167    -1.07100
O233        O  0.19341758  0.17829666  0.80241408    -1.07800
C234        C  0.23621875  0.07041211  0.82684156     1.07600
C235        C  0.14790824  0.17431571  0.62531676     1.07500
C236        C  0.08507741  0.15307760  0.76195398     1.10500
C237        C  0.29649736  0.10947459  0.64735266     1.08300
H238        H  0.14026406  0.21730671  0.70249309     0.33800
O239        O  0.17212799  0.21919021  0.71498454    -1.28100
H240        H  0.29350416  0.12522228  0.76294778     0.33500
O241        O  0.28054454  0.15694705  0.76101730    -1.29700
O242        O  0.24137319  0.35291025  0.64939067    -0.85500
O243        O  0.33251643  0.23748921  0.87406094    -0.87000
O244        O  0.12075299  0.31622763  0.74191121    -0.85600
O245        O  0.34601428  0.22665896  0.62724223    -0.85600
O246        O  0.37656533  0.15138866  0.76328311    -0.85400
O247        O  0.14432405  0.23416906  0.87458826    -0.85200
O248        O  0.23158155  0.36163893  0.82973994    -0.85500
O249        O  0.36838697  0.32955758  0.75543571    -0.85000
O250        O  0.15810292  0.32437706  0.83626052    -0.86100
O251        O  0.40035056  0.26059093  0.72490462    -0.85200
O252        O  0.15646468  0.32053324  0.66757171    -0.85600
O253        O  0.21310687  0.20467165  0.90714095    -0.85300
O254        O  0.33912421  0.14492522  0.83679289    -0.85000
O255        O  0.27731903  0.25643726  0.59492068    -0.85400
O256        O  0.27118069  0.38536509  0.71844320    -0.85700
O257        O  0.33648729  0.31218860  0.83960867    -0.87000
Zr258      Zr  0.22206736  0.26699199  0.66415671     2.83100
Zr259      Zr  0.26809064  0.19177647  0.83684376     2.83500
Zr260      Zr  0.15864680  0.25300662  0.78941539     2.84100
Zr261      Zr  0.33105071  0.20643283  0.71287073     2.83400
Zr262      Zr  0.28227011  0.31653687  0.77413809     2.84200
O263        O  0.31454021  0.24101090  0.78617858    -1.07600
O264        O  0.20921190  0.29962646  0.73984323    -1.07100
C265        C  0.25692209  0.38902394  0.67435192     1.07600
C266        C  0.35188809  0.27885532  0.86681256     1.10200
C267        C  0.12768516  0.33504606  0.70009853     1.07700
C268        C  0.32138946  0.24257718  0.59128378     1.08100
C269        C  0.37106430  0.13375817  0.80580580     1.07700
C270        C  0.16902521  0.21920245  0.91069255     1.07200
C271        C  0.18911865  0.35621999  0.84747420     1.07700
C272        C  0.40421895  0.30439207  0.73978758     1.07200
H273        H  0.23230692  0.27892585  0.85615217     0.33800
O274        O  0.23429612  0.26611027  0.82422153    -1.28700
H275        H  0.31618103  0.30099662  0.67962278     0.33900
O276        O  0.29615346  0.28103370  0.69954448    -1.30100
C277        C  0.35487659  0.72701345  0.45806005     0.81200
N278        N  0.40370099  0.72885074  0.45945075    -0.77100
C279        C  0.42772772  0.72719731  0.50176666     0.83600
N280        N  0.40220675  0.72445607  0.54341629    -0.77100
C281        C  0.35332750  0.72232138  0.54375736     0.83700
N282        N  0.32980852  0.72332837  0.50059777    -0.78800
C283        C  0.06124281  0.84737961  0.55332894     0.81200
N284        N  0.06130918  0.89567515  0.55785980    -0.77100
C285        C  0.06192578  0.92336770  0.51791764     0.83600
N286        N  0.06624338  0.90256286  0.47427083    -0.77100
C287        C  0.06676970  0.85442657  0.47061888     0.83700
N288        N  0.06410675  0.82733142  0.50994537    -0.78800
C289        C  0.26084191  0.52327261  0.65179334     0.81200
N290        N  0.26135304  0.47987523  0.67511971    -0.77100
C291        C  0.25837016  0.43762543  0.64975132     0.83600
N292        N  0.25556212  0.43973304  0.60076888    -0.77100
C293        C  0.25574697  0.48246923  0.57704520     0.83700
N294        N  0.25794513  0.52362620  0.60295927    -0.78800
C295        C  0.13475503  0.44682533  0.93965034     0.81200
N296        N  0.08662605  0.44948386  0.93918201    -0.77100
C297        C  0.06494567  0.49235388  0.94495697     0.83600
N298        N  0.09192477  0.53268416  0.94807495    -0.77100
C299        C  0.14023059  0.52933172  0.94889318     0.83700
N300        N  0.16112016  0.48653126  0.94459323    -0.78800
O301        O  0.15061878  0.72902962  0.87577918    -0.85500
O302        O  0.37932033  0.81503436  0.76095098    -0.85700
O303        O  0.33546527  0.71678752  0.88223864    -0.87400
O304        O  0.25951498  0.85284441  0.85584332    -0.86100
O305        O  0.22879815  0.88527214  0.78725094    -0.85700
O306        O  0.34004384  0.64334809  0.84478821    -0.87100
O307        O  0.34346843  0.82064176  0.83513574    -0.85600
O308        O  0.22048665  0.75615421  0.90860647    -0.85100
Zr309      Zr  0.27719775  0.76714311  0.83998508     2.84300
O310        O  0.28948140  0.80015086  0.76409725    -1.07100
O311        O  0.24157753  0.69415302  0.82402752    -1.07800
C312        C  0.17574621  0.74373874  0.91189664     1.07600
C313        C  0.37276182  0.83429644  0.80253898     1.07500
C314        C  0.35355274  0.67471485  0.87524445     1.10500
C315        C  0.24374843  0.88885893  0.83113014     1.08300
H316        H  0.35792842  0.71808802  0.79943099     0.33800
O317        O  0.32569070  0.71977285  0.78795064    -1.28100
H318        H  0.18330553  0.80199586  0.82485059     0.33500
O319        O  0.20295781  0.78191342  0.80485579    -1.29700
O320        O  0.35261590  0.73631662  0.62803842    -0.85500
O321        O  0.12147238  0.65058066  0.74353459    -0.87000
O322        O  0.37479344  0.62843919  0.75599131    -0.85600
O323        O  0.26680802  0.86201434  0.67339062    -0.85600
O324        O  0.13013317  0.83204433  0.74833321    -0.85400
O325        O  0.24312129  0.60647363  0.84035289    -0.85200
O326        O  0.24629995  0.60723365  0.65287598    -0.85500
O327        O  0.16606961  0.74000064  0.62787475    -0.85000
O328        O  0.27617666  0.57431859  0.72159310    -0.86100
O329        O  0.16218018  0.81341982  0.66507410    -0.85200
O330        O  0.40798138  0.69696786  0.72530091    -0.85600
O331        O  0.16934086  0.64220409  0.84519359    -0.85300
O332        O  0.09756454  0.76250340  0.77734041    -0.85000
O333        O  0.34023006  0.82519446  0.66766427    -0.85400
O334        O  0.28358241  0.70624645  0.59597211    -0.85700
O335        O  0.15699407  0.64472650  0.66898769    -0.87000
Zr336      Zr  0.33884125  0.75341794  0.71362974     2.83100
Zr337      Zr  0.16641676  0.70802902  0.79105808     2.83500
Zr338      Zr  0.29029664  0.64422002  0.77610686     2.84100
Zr339      Zr  0.21633518  0.81755270  0.73035145     2.83400
Zr340      Zr  0.22831146  0.69257503  0.66659326     2.84200
O341        O  0.18250275  0.74234693  0.71745921    -1.07600
O342        O  0.30300187  0.67897087  0.70087764    -1.07100
C343        C  0.32764248  0.72141026  0.59200939     1.07600
C344        C  0.12696805  0.63207136  0.70154973     1.10200
C345        C  0.41107995  0.65275963  0.74006914     1.07700
C346        C  0.30916515  0.85628997  0.65548922     1.08100
C347        C  0.09385189  0.80650844  0.76292003     1.07700
C348        C  0.20162326  0.61345025  0.85966453     1.07200
C349        C  0.26124068  0.57101980  0.67760336     1.07700
C350        C  0.14756520  0.78160641  0.63562573     1.07200
H351        H  0.20397279  0.62624664  0.74158290     0.33800
O352        O  0.21642484  0.65835071  0.74288315    -1.28700
H353        H  0.26493834  0.77956451  0.64797600     0.33900
O354        O  0.26304803  0.76672241  0.67987673    -1.30100
C355        C  0.73892934  0.44061207  0.34947483     0.81200
N356        N  0.73776529  0.48404730  0.32616935    -0.77100
C357        C  0.74111567  0.52628740  0.35147358     0.83600
N358        N  0.74497364  0.52414158  0.40033717    -0.77100
C359        C  0.74531605  0.48147991  0.42407318     0.83700
N360        N  0.74269951  0.44024473  0.39827187    -0.78800
C361        C  0.85695015  0.54099628  0.05159165     0.81200
N362        N  0.83702990  0.49774544  0.05783988    -0.77100
C363        C  0.86425129  0.45907264  0.06430894     0.83600
N364        N  0.91236571  0.46326479  0.06425338    -0.77100
C365        C  0.93308439  0.50651178  0.05607256     0.83700
N366        N  0.90517306  0.54577078  0.05142587    -0.78800
C367        C  0.54317621  0.63825075  0.26400677     0.81200
N368        N  0.50063407  0.66278002  0.26486535    -0.77100
C369        C  0.45772700  0.63866029  0.26142909     0.83600
N370        N  0.45814172  0.58988041  0.25782318    -0.77100
C371        C  0.49975510  0.56485891  0.25751198     0.83700
N372        N  0.54186370  0.58939121  0.26017333    -0.78800
C373        C  0.55873979  0.93677094  0.14577188     0.81200
N374        N  0.51532852  0.92958050  0.16511882    -0.77100
C375        C  0.47722361  0.92247296  0.13720650     0.83600
N376        N  0.48215660  0.92291174  0.08914771    -0.77100
C377        C  0.52538576  0.93184581  0.06892110     0.83700
N378        N  0.56419069  0.93717637  0.09740774    -0.78800
O379        O  0.74589061  0.85728579  0.15143268    -0.85500
O380        O  0.83804772  0.74545583  0.37943898    -0.85700
O381        O  0.74258653  0.86757273  0.33455753    -0.87400
O382        O  0.87495134  0.83930409  0.25552712    -0.86100
O383        O  0.90776235  0.77009787  0.22667885    -0.85700
O384        O  0.66911388  0.83085494  0.34320508    -0.87100
O385        O  0.84446222  0.81890449  0.34244362    -0.85600
O386        O  0.77530189  0.89113129  0.22004063    -0.85100
Zr387      Zr  0.79045201  0.82278902  0.27646741     2.84300
O388        O  0.82370645  0.74722733  0.28954564    -1.07100
O389        O  0.71729208  0.80558352  0.24302136    -1.07800
C390        C  0.76027743  0.89385913  0.17599162     1.07600
C391        C  0.85733555  0.78711952  0.37272724     1.07500
C392        C  0.70094008  0.86214683  0.35402107     1.10500
C393        C  0.91116369  0.81457697  0.24043577     1.08300
H394        H  0.74238208  0.78402331  0.35935023     0.33800
O395        O  0.74363257  0.77167400  0.32720234    -1.28100
H396        H  0.82278069  0.80692230  0.18125876     0.33500
O397        O  0.80309511  0.78711061  0.20163974    -1.29700
O398        O  0.75839838  0.61059828  0.35223499    -0.85500
O399        O  0.66841000  0.72469852  0.12457386    -0.87000
O400        O  0.65294886  0.73823891  0.37872124    -0.85600
O401        O  0.88345923  0.65589272  0.26331589    -0.85600
O402        O  0.85352019  0.72970910  0.13018599    -0.85400
O403        O  0.63202108  0.82624279  0.24805261    -0.85200
O404        O  0.62724380  0.63768677  0.24938458    -0.85500
O405        O  0.75745166  0.61518137  0.16383322    -0.85000
O406        O  0.59604523  0.70691868  0.28016713    -0.86100
O407        O  0.83364840  0.64648749  0.16175823    -0.85200
O408        O  0.72136913  0.70648662  0.40990999    -0.85600
O409        O  0.66294045  0.82690803  0.17145177    -0.85300
O410        O  0.78399654  0.75738725  0.09760177    -0.85000
O411        O  0.84683385  0.64832337  0.33712823    -0.85400
O412        O  0.72543782  0.57974877  0.28384804    -0.85700
O413        O  0.66174571  0.65153109  0.16211234    -0.87000
Zr414      Zr  0.77677143  0.69674883  0.33945137     2.83100
Zr415      Zr  0.72836364  0.77245903  0.16697468     2.83500
Zr416      Zr  0.66720032  0.76047728  0.29424252     2.84100
Zr417      Zr  0.83879934  0.71305204  0.21564308     2.83400
Zr418      Zr  0.71256510  0.65062143  0.23045182     2.84200
O419        O  0.76287847  0.70001969  0.18370936    -1.07600
O420        O  0.70136774  0.68524850  0.30583259    -1.07100
C421        C  0.74162653  0.57510551  0.32726202     1.07600
C422        C  0.64879686  0.68337157  0.13193140     1.10200
C423        C  0.67737692  0.72113458  0.41407019     1.07700
C424        C  0.87723530  0.63649725  0.30480483     1.08100
C425        C  0.82818862  0.74322503  0.09395721     1.07700
C426        C  0.63751787  0.84406577  0.20560381     1.07200
C427        C  0.59163496  0.66302868  0.26476963     1.07700
C428        C  0.79948294  0.62073109  0.14525336     1.07200
H429        H  0.64667786  0.72587387  0.20806597     0.33800
O430        O  0.67893905  0.72669072  0.21960511    -1.28700
H431        H  0.79976799  0.63099196  0.26391450     0.33900
O432        O  0.78760511  0.66311480  0.26293679    -1.30100
C433        C  0.64990655  0.71773907  0.54763011     0.81200
N434        N  0.60117914  0.72156285  0.54635521    -0.77100
C435        C  0.57716919  0.72353469  0.50405055     0.83600
N436        N  0.60266068  0.72262896  0.46233615    -0.77100
C437        C  0.65142491  0.71901010  0.46195774     0.83700
N438        N  0.67488623  0.71623084  0.50503025    -0.78800
C439        C  0.95024037  0.83207392  0.54751313     0.81200
N440        N  0.95005683  0.88020166  0.55204956    -0.77100
C441        C  0.95055182  0.90817079  0.51257925     0.83600
N442        N  0.94855444  0.88758255  0.46857187    -0.77100
C443        C  0.94901778  0.83931856  0.46445033     0.83700
N444        N  0.94980603  0.81202254  0.50389776    -0.78800
C445        C  0.54424648  0.62388524  0.74150119     0.81200
N446        N  0.50223738  0.64943034  0.73914342    -0.77100
C447        C  0.45865463  0.62631780  0.73932894     0.83600
N448        N  0.45805134  0.57730659  0.74126808    -0.77100
C449        C  0.49921282  0.55135645  0.74273146     0.83700
N450        N  0.54184866  0.57504124  0.74326731    -0.78800
C451        C  0.45893591  0.92453108  0.86082320     0.81200
N452        N  0.45602090  0.92563679  0.90923622    -0.77100
C453        C  0.49647885  0.92446686  0.93570179     0.83600
N454        N  0.53922827  0.91835915  0.91358104    -0.77100
C455        C  0.54143271  0.91668706  0.86522036     0.83700
N456        N  0.50151493  0.92013519  0.83933439    -0.78800
C457        C  0.73784324  0.43244218  0.64667237     0.81200
N458        N  0.74181935  0.43408952  0.59777241    -0.77100
C459        C  0.74382896  0.47654515  0.57373035     0.83600
N460        N  0.74276668  0.51805569  0.59925771    -0.77100
C461        C  0.73906005  0.51811207  0.64811164     0.83700
N462        N  0.73624304  0.47489889  0.67169286    -0.78800
C463        C  0.86260479  0.50582238  0.94172424     0.81200
N464        N  0.83625286  0.46582209  0.94395492    -0.77100
C465        C  0.85706031  0.42284814  0.94653262     0.83600
N466        N  0.90537175  0.41969188  0.94769738    -0.77100
C467        C  0.93233009  0.46016984  0.94752982     0.83700
N468        N  0.91075289  0.50322542  0.94274678    -0.78800
O469        O  0.85307726  0.71883742  0.87635377    -0.85500
O470        O  0.62084382  0.80236400  0.76853449    -0.85700
O471        O  0.74567242  0.84729466  0.85384296    -0.87400
O472        O  0.67155246  0.70840610  0.88255869    -0.86100
O473        O  0.66642840  0.63463565  0.84600402    -0.85700
O474        O  0.77684689  0.87966370  0.78496341    -0.87100
O475        O  0.65717860  0.80632563  0.84230889    -0.85600
O476        O  0.78480182  0.75045752  0.90878486    -0.85100
Zr477      Zr  0.72891967  0.76072017  0.84024568     2.84300
O478        O  0.68142635  0.71103331  0.79086126    -1.07100
O479        O  0.80361369  0.77401440  0.80477924    -1.07800
C480        C  0.82858991  0.73556582  0.91221769     1.07600
C481        C  0.62621370  0.81905635  0.81132142     1.07500
C482        C  0.76094461  0.88353705  0.82871990     1.10500
C483        C  0.65419346  0.66568689  0.87731995     1.08300
H484        H  0.70370814  0.82820388  0.76760414     0.33800
O485        O  0.71667129  0.79650173  0.76514225    -1.28100
H486        H  0.76529333  0.67333089  0.85756217     0.33500
O487        O  0.76295739  0.68650652  0.82582034    -1.29700
O488        O  0.64957232  0.73059828  0.63255775    -0.85500
O489        O  0.87879810  0.64023603  0.73953585    -0.87000
O490        O  0.74488291  0.84852915  0.66710488    -0.85600
O491        O  0.62891497  0.62251405  0.75778958    -0.85600
O492        O  0.76672445  0.59033434  0.83083968    -0.85400
O493        O  0.87566587  0.82473690  0.74932877    -0.85200
O494        O  0.83283004  0.73637968  0.62234692    -0.85500
O495        O  0.75476022  0.60252782  0.64965984    -0.85000
O496        O  0.84121915  0.80902806  0.66066374    -0.86100
O497        O  0.72660560  0.56817903  0.71876908    -0.85200
O498        O  0.66988200  0.81455246  0.66529032    -0.85600
O499        O  0.90826918  0.75604446  0.77932971    -0.85300
O500        O  0.84000477  0.62779922  0.83704603    -0.85000
O501        O  0.59692498  0.69221623  0.72943896    -0.85400
O502        O  0.71866618  0.70266277  0.59857695    -0.85700
O503        O  0.84183300  0.63577182  0.66614110    -0.87000
Zr504      Zr  0.66592945  0.74725923  0.71790628     2.83100
Zr505      Zr  0.83866334  0.69952809  0.79099613     2.83500
Zr506      Zr  0.79096094  0.80987251  0.73033914     2.84100
Zr507      Zr  0.71524195  0.63585198  0.77616453     2.83400
Zr508      Zr  0.77467393  0.68743984  0.66623924     2.84200
O509        O  0.78857997  0.65264544  0.74107024    -1.07600
O510        O  0.74089628  0.76069042  0.68331867    -1.07100
C511        C  0.67458099  0.71686737  0.59581679     1.07600
C512        C  0.87239782  0.62243493  0.69718356     1.10200
C513        C  0.70281542  0.84226477  0.64932124     1.07700
C514        C  0.59299686  0.64798389  0.74306511     1.08100
C515        C  0.80908581  0.59589198  0.84850950     1.07700
C516        C  0.91170753  0.80031994  0.76475307     1.07200
C517        C  0.85281164  0.77753887  0.62931241     1.07700
C518        C  0.74007180  0.56576935  0.67418282     1.07200
H519        H  0.85657491  0.73531977  0.70538205     0.33800
O520        O  0.82442914  0.73394716  0.71756933    -1.28700
H521        H  0.68067537  0.65343435  0.68261666     0.33900
O522        O  0.70080699  0.67291207  0.70268330    -1.30100
C523        C  0.45410988  0.34160576  0.25980667     0.81200
N524        N  0.45540233  0.39053341  0.25683804    -0.77100
C525        C  0.49755777  0.41515302  0.25468672     0.83600
N526        N  0.53925285  0.39015403  0.25453249    -0.77100
C527        C  0.53968801  0.34129507  0.25750497     0.83700
N528        N  0.49671831  0.31717508  0.26053656    -0.78800
C529        C  0.51789999  0.05071127  0.13618250     0.81200
N530        N  0.51441879  0.04734535  0.08809486    -0.77100
C531        C  0.47174966  0.03708156  0.06763795     0.83600
N532        N  0.43213243  0.03345337  0.09565716    -0.77100
C533        C  0.43616348  0.03676076  0.14396605     0.83700
N534        N  0.47896669  0.04520634  0.16368456    -0.78800
O535        O  0.84326536  0.23587387  0.12038608    -0.85500
O536        O  0.60903980  0.16086582  0.22968499    -0.85700
O537        O  0.73756691  0.11068677  0.14637861    -0.87400
O538        O  0.65557958  0.24571625  0.12347020    -0.86100
O539        O  0.65696200  0.32203355  0.15459945    -0.85700
O540        O  0.76798229  0.07892652  0.21542006    -0.87100
O541        O  0.64676407  0.15160328  0.15668794    -0.85600
O542        O  0.77386887  0.20743408  0.08779266    -0.85100
Zr543      Zr  0.71927005  0.19683410  0.15843587     2.84300
O544        O  0.67496294  0.24813826  0.20882471    -1.07100
O545        O  0.79338031  0.18254300  0.19335656    -1.07800
C546        C  0.81840558  0.22072550  0.08434423     1.07600
C547        C  0.61370850  0.14258172  0.18732512     1.07500
C548        C  0.75328758  0.07501786  0.17158450     1.10500
C549        C  0.63907608  0.28854928  0.12894334     1.08300
H550        H  0.69188935  0.13119288  0.23219541     0.33800
O551        O  0.70607034  0.16251051  0.23438523    -1.28100
H552        H  0.75748504  0.28525732  0.13886360     0.33500
O553        O  0.75466434  0.27160392  0.17041428    -1.29700
O554        O  0.64191848  0.23006024  0.36764421    -0.85500
O555        O  0.86734763  0.32040977  0.25203392    -0.87000
O556        O  0.73046233  0.11143643  0.33142051    -0.85600
O557        O  0.62408994  0.33985290  0.24070183    -0.85600
O558        O  0.76281019  0.36921116  0.16880557    -0.85400
O559        O  0.86673128  0.13531757  0.25165996    -0.85200
O560        O  0.82459534  0.22083879  0.37581412    -0.85500
O561        O  0.75113025  0.35601992  0.34808541    -0.85000
O562        O  0.82898738  0.14738266  0.33860310    -0.86100
O563        O  0.72382988  0.39059897  0.27910788    -0.85200
O564        O  0.65599458  0.14609052  0.33313813    -0.85600
O565        O  0.89931913  0.20376975  0.22006499    -0.85300
O566        O  0.83388517  0.32881129  0.15998099    -0.85000
O567        O  0.58978628  0.27146283  0.27056208    -0.85400
O568        O  0.71178816  0.25656039  0.40090531    -0.85700
O569        O  0.83482259  0.32317154  0.32792155    -0.87000
Zr570      Zr  0.65649999  0.21363510  0.28150967     2.83100
Zr571      Zr  0.82947332  0.25688185  0.20532442     2.83500
Zr572      Zr  0.78036222  0.14869095  0.26886465     2.84100
Zr573      Zr  0.70929620  0.32320606  0.22175155     2.83400
Zr574      Zr  0.76760163  0.27069598  0.33208864     2.84200
O575        O  0.78084044  0.30320006  0.25621970    -1.07600
O576        O  0.73099224  0.19857009  0.31578175    -1.07100
C577        C  0.66736336  0.24305613  0.40421587     1.07600
C578        C  0.86185105  0.33868412  0.29416966     1.10200
C579        C  0.68805868  0.11786154  0.34891767     1.07700
C580        C  0.58739395  0.31561812  0.25620715     1.08100
C581        C  0.80510951  0.36300917  0.15093996     1.07700
C582        C  0.90302338  0.16039056  0.23641496     1.07200
C583        C  0.84205527  0.17851115  0.36955542     1.07700
C584        C  0.73779516  0.39295074  0.32344833     1.07200
H585        H  0.84810015  0.22187464  0.29265975     0.33800
O586        O  0.81622070  0.22374077  0.28026458    -1.28700
H587        H  0.67461220  0.30719298  0.31634054     0.33900
O588        O  0.69406034  0.28714355  0.29614858    -1.30100
C589        C  0.45265194  0.32866743  0.73870601     0.81200
N590        N  0.45450034  0.37745081  0.74148519    -0.77100
C591        C  0.49684821  0.40154650  0.74154432     0.83600
N592        N  0.53827218  0.37602946  0.73965461    -0.77100
C593        C  0.53814791  0.32706057  0.73673101     0.83700
N594        N  0.49484383  0.30352888  0.73594676    -0.78800
C595        C  0.45953488  0.04158723  0.86319663     0.81200
N596        N  0.49977194  0.03607348  0.83777515    -0.77100
C597        C  0.54189044  0.03159169  0.85972278     0.83600
N598        N  0.54407652  0.03289575  0.90816945    -0.77100
C599        C  0.50326044  0.03647239  0.93432202     0.83700
N600        N  0.46097892  0.04235746  0.91162175    -0.78800
C601        C  0.64335460  0.23976975  0.53853169     0.81200
N602        N  0.59449454  0.23860376  0.53835530    -0.77100
C603        C  0.56931802  0.23962624  0.49672856     0.83600
N604        N  0.59368433  0.24100694  0.45432260    -0.77100
C605        C  0.64255539  0.24238176  0.45276920     0.83700
N606        N  0.66727874  0.24207777  0.49532183    -0.78800
C607        C  0.93526888  0.11748714  0.45185222     0.81200
N608        N  0.93775247  0.06940457  0.44726935    -0.77100
C609        C  0.94082624  0.04165908  0.48688289     0.83600
N610        N  0.93780987  0.06216221  0.53099277    -0.77100
C611        C  0.93550062  0.11043481  0.53478274     0.83700
N612        N  0.93443618  0.13746756  0.49532895    -0.78800
O613        O  0.84728961  0.23148586  0.86611572    -0.85500
O614        O  0.61989769  0.13804289  0.75666717    -0.85700
O615        O  0.66596432  0.23647046  0.87856111    -0.87400
O616        O  0.74144907  0.10280403  0.84916811    -0.86100
O617        O  0.76923263  0.06868556  0.77996801    -0.85700
O618        O  0.65979044  0.31016085  0.84208619    -0.87100
O619        O  0.65774445  0.13251620  0.82947049    -0.85600
O620        O  0.77818944  0.20286320  0.90009506    -0.85100
Zr621      Zr  0.72230371  0.18793601  0.83267134     2.84300
O622        O  0.70824559  0.15468182  0.75757704    -1.07100
O623        O  0.75722026  0.26095511  0.81544979    -1.07800
C624        C  0.82223089  0.21739955  0.90279899     1.07600
C625        C  0.62790335  0.11851623  0.79788418     1.07500
C626        C  0.64816620  0.27872483  0.87363685     1.10500
C627        C  0.75585487  0.06603690  0.82457399     1.08300
H628        H  0.64024729  0.23671922  0.79563258     0.33800
O629        O  0.67201927  0.23485762  0.78245551    -1.28100
H630        H  0.81632397  0.15472690  0.81646680     0.33500
O631        O  0.79635430  0.17423667  0.79643401    -1.29700
O632        O  0.64416625  0.22135501  0.62253263    -0.85500
O633        O  0.87690719  0.30316016  0.72755214    -0.87000
O634        O  0.62217379  0.32557609  0.75169668    -0.85600
O635        O  0.72974907  0.09131190  0.66874629    -0.85600
O636        O  0.86713670  0.12369930  0.74208817    -0.85400
O637        O  0.75543632  0.34753024  0.83350115    -0.85200
O638        O  0.75161795  0.34777858  0.64608848    -0.85500
O639        O  0.82859336  0.21008147  0.61971273    -0.85000
O640        O  0.72147122  0.38028349  0.71530323    -0.86100
O641        O  0.83059593  0.13540012  0.65446470    -0.85200
O642        O  0.58892612  0.25681143  0.72172781    -0.85600
O643        O  0.83106557  0.31562768  0.83329718    -0.85300
O644        O  0.90026812  0.19355034  0.76941855    -0.85000
O645        O  0.65746751  0.12976310  0.66067066    -0.85400
O646        O  0.71318747  0.25118202  0.58953405    -0.85700
O647        O  0.83945223  0.30765920  0.65441499    -0.87000
Zr648      Zr  0.65811153  0.20094930  0.70798129     2.83100
Zr649      Zr  0.83201218  0.24859751  0.78052703     2.83500
Zr650      Zr  0.70710751  0.31057215  0.77000007     2.84100
Zr651      Zr  0.78112857  0.13702339  0.72323917     2.83400
Zr652      Zr  0.76826910  0.26156009  0.65889150     2.84200
O653        O  0.81550099  0.21206580  0.70808370    -1.07600
O654        O  0.69404475  0.27527796  0.69509970    -1.07100
C655        C  0.66891857  0.23729581  0.58634175     1.07600
C656        C  0.87141994  0.31974318  0.68462893     1.10200
C657        C  0.58584628  0.30101150  0.73654928     1.07700
C658        C  0.68788857  0.09722286  0.65026756     1.08100
C659        C  0.90341202  0.14911534  0.75650333     1.07700
C660        C  0.79805513  0.34228432  0.85037504     1.07200
C661        C  0.73678613  0.38393995  0.67128836     1.07700
C662        C  0.84535185  0.16723535  0.62512209     1.07200
H663        H  0.79452709  0.32927452  0.73126072     0.33800
O664        O  0.78106898  0.29769477  0.73398251    -1.28700
H665        H  0.73164657  0.17450092  0.64145835     0.33900
O666        O  0.73375445  0.18752913  0.67327185    -1.30100
O667        O  0.14154632  0.24483471  0.12835340    -0.85500
O668        O  0.36499691  0.15176546  0.24170219    -0.85700
O669        O  0.32249523  0.25623202  0.11669561    -0.87400
O670        O  0.25110106  0.11886415  0.14939101    -0.86100
O671        O  0.22072286  0.08658811  0.21859623    -0.85700
O672        O  0.33075860  0.32924583  0.15432955    -0.87100
O673        O  0.33293680  0.15014096  0.16599631    -0.85600
O674        O  0.21053635  0.21494990  0.09570385    -0.85100
Zr675      Zr  0.26787854  0.20494176  0.16318670     2.84300
O676        O  0.27991053  0.17231289  0.23887365    -1.07100
O677        O  0.23391545  0.27767653  0.18118109    -1.07800
C678        C  0.16629861  0.22853437  0.09235752     1.07600
C679        C  0.35847476  0.13314875  0.19982309     1.07500
C680        C  0.34059685  0.29863906  0.12169528     1.10500
C681        C  0.23622536  0.08270739  0.17467371     1.08300
H682        H  0.35046247  0.25402838  0.19967373     0.33800
O683        O  0.31880954  0.25214729  0.21312586    -1.28100
H684        H  0.17335934  0.17119094  0.17976975     0.33500
O685        O  0.19326625  0.19137016  0.19939046    -1.29700
O686        O  0.34553036  0.23657533  0.37309905    -0.85500
O687        O  0.11405399  0.32357042  0.26304714    -0.87000
O688        O  0.36999912  0.34147280  0.24451187    -0.85600
O689        O  0.25452043  0.11215692  0.33222967    -0.85600
O690        O  0.12149897  0.14115250  0.25625838    -0.85400
O691        O  0.23879667  0.36417232  0.16061242    -0.85200
O692        O  0.24350623  0.36603086  0.35076981    -0.85500
O693        O  0.16025419  0.23492155  0.37735641    -0.85000
O694        O  0.27309218  0.39841558  0.28130436    -0.86100
O695        O  0.15339113  0.16144674  0.34059023    -0.85200
O696        O  0.40153727  0.27240970  0.27483525    -0.85600
O697        O  0.16440751  0.32904864  0.15593660    -0.85300
O698        O  0.08850428  0.21017748  0.22756731    -0.85000
O699        O  0.32827781  0.14876696  0.33816617    -0.85400
O700        O  0.27723382  0.26798942  0.40571552    -0.85700
O701        O  0.15186306  0.33114839  0.33588788    -0.87000
Zr702      Zr  0.33079185  0.21813268  0.28799233     2.83100
Zr703      Zr  0.15780179  0.26585549  0.21339166     2.83500
Zr704      Zr  0.28453169  0.32809851  0.22608481     2.84100
Zr705      Zr  0.20684137  0.15604941  0.27391724     2.83400
Zr706      Zr  0.22184775  0.28191106  0.33606289     2.84200
O707        O  0.17437325  0.23184191  0.28688253    -1.07600
O708        O  0.29687274  0.29327434  0.30084960    -1.07100
C709        C  0.32089735  0.25217159  0.40928103     1.07600
C710        C  0.11999691  0.34227607  0.30502208     1.10200
C711        C  0.40571232  0.31646664  0.25992533     1.07700
C712        C  0.29618637  0.11842102  0.35096421     1.08100
C713        C  0.08518044  0.16590660  0.24182723     1.07700
C714        C  0.19778400  0.35674295  0.14076793     1.07200
C715        C  0.25921750  0.40191739  0.32585476     1.07700
C716        C  0.14043688  0.19366419  0.37050305     1.07200
H717        H  0.19737070  0.34823750  0.26144676     0.33800
O718        O  0.20945922  0.31613629  0.25990621    -1.28700
H719        H  0.25571606  0.19554013  0.35479232     0.33900
O720        O  0.25458893  0.20743977  0.32253423    -1.30100
C721        C  0.91519726  0.13210850  0.57544155    -0.12300
C722        C  0.88541804  0.15253018  0.59814434    -0.13900
C723        C  0.60321432  0.07639754  0.81086769    -0.12300
C724        C  0.58128062  0.04665969  0.83225856    -0.13900
C725        C  0.91380619  0.14474822  0.41590787    -0.12300
C726        C  0.88246403  0.16489993  0.39579182    -0.13900
C727        C  0.46747652  0.03555068  0.01519895    -0.15500
C728        C  0.50612547  0.03888961  0.98669386    -0.30600
H729        H  0.43222833  0.03094457  0.99985848     0.13600
H730        H  0.54146993  0.04185389  0.00218650     0.14100
C731        C  0.39775078  0.05475108  0.17095928    -0.12300
C732        C  0.37864783  0.08802599  0.18952408    -0.13900
C733        C  0.55606456  0.07650694  0.15648069    -0.12300
C734        C  0.58145012  0.10644211  0.17313227    -0.13900
C735        C  0.83025380  0.38559439  0.92569775    -0.12300
C736        C  0.81055315  0.36565416  0.89350811    -0.13900
C737        C  0.84084604  0.54447335  0.91853087    -0.12300
C738        C  0.82295415  0.56716906  0.88740869    -0.13900
C739        C  0.59908329  0.85877831  0.82529716    -0.12300
C740        C  0.57839005  0.89130092  0.84308143    -0.13900
C741        C  0.49760277  0.45442018  0.74297673    -0.12300
C742        C  0.49789029  0.49845820  0.74329852    -0.13900
C743        C  0.94700331  0.96011558  0.51852717    -0.15500
C744        C  0.94363482  0.98964207  0.48107122    -0.30600
H745        H  0.94730681  0.97430340  0.55471023     0.13600
H746        H  0.94379114  0.97547787  0.44488049     0.14100
C747        C  0.92841460  0.80494141  0.58359812    -0.12300
C748        C  0.89501894  0.78813687  0.60398307    -0.13900
C749        C  0.92823798  0.81771063  0.42399262    -0.12300
C750        C  0.89786036  0.80002922  0.39989907    -0.13900
C751        C  0.53093338  0.93000907  0.01658440    -0.15500
C752        C  0.49280758  0.92485012  0.98802746    -0.30600
H753        H  0.56648374  0.93380033  0.00135419     0.13600
H754        H  0.45717274  0.92263838  0.00334687     0.14100
C755        C  0.61597803  0.88836598  0.19461099    -0.12300
C756        C  0.59638308  0.92034017  0.17449942    -0.13900
C757        C  0.49907280  0.51205031  0.25492728    -0.12300
C758        C  0.49819482  0.46803973  0.25397749    -0.13900
C759        C  0.82878238  0.57898126  0.06829006    -0.12300
C760        C  0.80964670  0.59902456  0.10072324    -0.13900
C761        C  0.82214174  0.39508602  0.11584091    -0.12300
C762        C  0.84207836  0.42025000  0.08765191    -0.13900
C763        C  0.74674833  0.47973395  0.47690421    -0.12300
C764        C  0.74620855  0.47783023  0.52090363    -0.13900
C765        C  0.42038874  0.90674835  0.83416504    -0.12300
C766        C  0.39838148  0.87607738  0.81444611    -0.13900
C767        C  0.98461345  0.45673516  0.94652570    -0.15500
C768        C  0.01270586  0.49574478  0.94396643    -0.30600
H769        H  0.00026848  0.42136533  0.94873742     0.13600
H770        H  0.99711818  0.53119172  0.94295094     0.14100
C771        C  0.18937549  0.58917721  0.90230945    -0.12300
C772        C  0.16839441  0.56785115  0.93282356    -0.13900
C773        C  0.10589363  0.79505531  0.61126436    -0.12300
C774        C  0.07679716  0.81812143  0.59085038    -0.13900
C775        C  0.52444623  0.72618359  0.50332441    -0.12300
C776        C  0.48051941  0.72731945  0.50251899    -0.13900
C777        C  0.40012956  0.09550750  0.82001290    -0.12300
C778        C  0.42248362  0.06507125  0.83928093    -0.13900
C779        C  0.15733475  0.40854026  0.91672355    -0.12300
C780        C  0.17530642  0.38526980  0.88604076    -0.13900
C781        C  0.05725121  0.00400660  0.48376654    -0.15500
C782        C  0.06037704  0.97549400  0.52230115    -0.30600
H783        H  0.05697237  0.98897213  0.44793383     0.13600
H784        H  0.05978286  0.99049687  0.55813950     0.14100
C785        C  0.10786433  0.16172132  0.59806517    -0.12300
C786        C  0.07560567  0.14560909  0.57578217    -0.13900
C787        C  0.06766053  0.16138220  0.41737814    -0.12300
C788        C  0.09865751  0.18181430  0.39628988    -0.13900
C789        C  0.51654380  0.24007206  0.49765906    -0.12300
C790        C  0.47262202  0.24130761  0.49856024    -0.13900
C791        C  0.41319094  0.86790259  0.17527412    -0.12300
C792        C  0.43870107  0.89740526  0.15792094    -0.13900
C793        C  0.12055249  0.81468807  0.40907616    -0.12300
C794        C  0.08956554  0.83300281  0.43158281    -0.13900
C795        C  0.98531395  0.51181797  0.05691745    -0.15500
C796        C  0.01411957  0.47361671  0.05803041    -0.30600
H797        H  0.00029983  0.54764906  0.05519410     0.13600
H798        H  0.99904494  0.43779463  0.05787930     0.14100
C799        C  0.17794880  0.58283584  0.12205362    -0.12300
C800        C  0.15907507  0.55999842  0.09155202    -0.13900
C801        C  0.18755470  0.37958883  0.09692739    -0.12300
C802        C  0.16850002  0.40162556  0.06601131    -0.13900
C803        C  0.25443764  0.48763644  0.48016319    -0.12300
C804        C  0.25435155  0.48464444  0.52415477    -0.13900
C805        C  0.06584040  0.41094479  0.33550602    -0.12300
C806        C  0.09092352  0.38114376  0.31841642    -0.13900
C807        C  0.90563266  0.41367386  0.32451221    -0.12300
C808        C  0.88529496  0.38186726  0.30498603    -0.13900
C809        C  0.90225260  0.59452654  0.31500653    -0.12300
C810        C  0.92218607  0.56159783  0.33242122    -0.13900
C811        C  0.10164661  0.60407147  0.32831982    -0.12300
C812        C  0.07951952  0.57356075  0.34857839    -0.13900
C813        C  0.99989026  0.96788772  0.24668880    -0.12300
C814        C  0.99831638  0.01188078  0.24685564    -0.13900
C815        C  0.02005338  0.53931093  0.51931117    -0.15500
C816        C  0.98343319  0.54109794  0.48905401    -0.30600
H817        H  0.05645662  0.53956645  0.50576093     0.13600
H818        H  0.94697852  0.53995365  0.50244385     0.14100
C819        C  0.10202687  0.58977845  0.69131837    -0.12300
C820        C  0.08255001  0.55591783  0.67476304    -0.13900
C821        C  0.92413831  0.55394517  0.66232968    -0.12300
C822        C  0.90024158  0.58312059  0.68222280    -0.13900
C823        C  0.97485954  0.42740972  0.48003544    -0.15500
C824        C  0.01330861  0.42688763  0.50852505    -0.30600
H825        H  0.93919002  0.42563445  0.49532387     0.13600
H826        H  0.04897779  0.42951501  0.49333727     0.14100
C827        C  0.10294398  0.37690993  0.68732838    -0.12300
C828        C  0.08177147  0.40642091  0.66532321    -0.13900
C829        C  0.90048183  0.35785327  0.66901610    -0.12300
C830        C  0.92309077  0.38882377  0.65032715    -0.13900
C831        C  0.99678722  0.99913703  0.75693371    -0.12300
C832        C  0.99792242  0.95509595  0.75746167    -0.13900
C833        C  0.32643655  0.07381239  0.42531029    -0.12300
C834        C  0.30732194  0.09343283  0.39300610    -0.13900
C835        C  0.34519796  0.91511672  0.41879481    -0.12300
C836        C  0.32534763  0.89107699  0.38976763    -0.13900
C837        C  0.65653346  0.04341495  0.58183395    -0.12300
C838        C  0.67409599  0.06765969  0.61200171    -0.13900
C839        C  0.67034102  0.88418913  0.57418413    -0.12300
C840        C  0.69093011  0.86518533  0.60609695    -0.13900
C841        C  0.40711078  0.33075201  0.06542331    -0.12300
C842        C  0.37739468  0.31323146  0.09048963    -0.13900
C843        C  0.39610723  0.28930167  0.88821619    -0.12300
C844        C  0.42819810  0.30969720  0.90717337    -0.13900
C845        C  0.60553932  0.67244819  0.10899604    -0.12300
C846        C  0.57248390  0.65280582  0.09095001    -0.13900
C847        C  0.61666152  0.65042718  0.90769239    -0.12300
C848        C  0.58764554  0.63177926  0.93298413    -0.13900
C849        C  0.48573747  0.99033408  0.55577286    -0.15500
C850        C  0.51395380  0.95158773  0.55529693    -0.30600
H851        H  0.50134642  0.02592964  0.55613993     0.13600
H852        H  0.49850100  0.91594660  0.55429268     0.14100
C853        C  0.33139410  0.06202930  0.57624486    -0.12300
C854        C  0.30994239  0.08324597  0.60639588    -0.13900
C855        C  0.32256789  0.88295086  0.61490049    -0.12300
C856        C  0.34056280  0.90354616  0.58216179    -0.13900
C857        C  0.24770042  0.98813350  0.02454427    -0.12300
C858        C  0.24814683  0.98532329  0.98059551    -0.13900
C859        C  0.51510317  0.97786177  0.44407186    -0.15500
C860        C  0.48455351  0.01445766  0.44421371    -0.30600
H861        H  0.50177986  0.94135590  0.44317359     0.13600
H862        H  0.49770198  0.05100073  0.44567736     0.14100
C863        C  0.67491524  0.09428792  0.39161586    -0.12300
C864        C  0.65663375  0.07343801  0.42409567    -0.13900
C865        C  0.68919298  0.89078885  0.39373238    -0.12300
C866        C  0.67097817  0.91405152  0.42433823    -0.13900
C867        C  0.75166831  0.97860480  0.97827489    -0.12300
C868        C  0.75124092  0.98017318  0.02225631    -0.13900
C869        C  0.55701676  0.46338797  0.99412432    -0.15500
C870        C  0.55440113  0.49340522  0.03137618    -0.30600
H871        H  0.56158552  0.47734492  0.95812108     0.13600
H872        H  0.54928305  0.47979544  0.06743945     0.14100
C873        C  0.56353492  0.31857849  0.08564376    -0.12300
C874        C  0.59544918  0.30054430  0.10699301    -0.13900
C875        C  0.57826186  0.30936104  0.92610109    -0.12300
C876        C  0.60920637  0.29150649  0.90297056    -0.13900
C877        C  0.01583206  0.22472173  0.99857072    -0.12300
C878        C  0.97191898  0.22452282  0.99659032    -0.13900
C879        C  0.44509108  0.46892135  0.97000702    -0.15500
C880        C  0.44294820  0.49811015  0.00806012    -0.30600
H881        H  0.44908737  0.48328838  0.93410803     0.13600
H882        H  0.43962094  0.48340303  0.04389048     0.14100
C883        C  0.41799304  0.65221432  0.07752318    -0.12300
C884        C  0.38771676  0.67292817  0.09909169    -0.13900
C885        C  0.42807995  0.64338329  0.91916324    -0.12300
C886        C  0.39564122  0.66197751  0.89924411    -0.13900
C887        C  0.97989288  0.73870217  0.00279886    -0.12300
C888        C  0.02377356  0.74075995  0.00286115    -0.13900
loop_ 
_geom_bond_atom_site_label_1 
_geom_bond_atom_site_label_2 
_geom_bond_distance 
_geom_bond_site_symmetry_2 
_ccdc_geom_bond_type 
C1            N2   1.379   1_556  A
C1            N6   1.370       .  A
C1          C312   1.519       .  S
N2            C3   1.379       .  A
C3            N4   1.371       .  A
C3          C168   1.522       .  S
N4            C5   1.365       .  A
C5            N6   1.364   1_554  A
C5          C888   1.479       .  S
C7            N8   1.354       .  A
C7           N12   1.338   1_554  A
C7          C883   1.405       .  S
N8            C9   1.357       .  A
C9           N10   1.358   1_554  A
C9          C880   1.463       .  S
N10          C11   1.356       .  A
C11          N12   1.340       .  A
C11         C885   1.400       .  S
C13          N14   1.370       .  A
C13          N18   1.377   1_554  A
C13         C546   1.519       .  S
N14          C15   1.364   1_554  A
C15          N16   1.366       .  A
C15         C878   1.480       .  S
N16          C17   1.372       .  A
C17          N18   1.379       .  A
C17         C624   1.515       .  S
C19          N20   1.341   1_556  A
C19          N24   1.351       .  A
C19         C875   1.405       .  S
N20          C21   1.344       .  A
C21          N22   1.358       .  A
C21         C873   1.404       .  S
N22          C23   1.359   1_554  A
C23          N24   1.353       .  A
C23         C869   1.464       .  S
C25          N26   1.376       .  A
C25          N30   1.370       .  A
C25         C390   1.517       .  S
N26          C27   1.379   1_565  A
C27          N28   1.370       .  A
C27         C548   1.513       .  S
N28          C29   1.364   1_545  A
C29          N30   1.363       .  A
C29         C868   1.477       .  S
C31          N32   1.357       .  A
C31          N36   1.342   1_545  A
C31         C864   1.404       .  S
N32          C33   1.360   1_545  A
C33          N34   1.354       .  A
C33         C859   1.466       .  S
N34          C35   1.352       .  A
C35          N36   1.340       .  A
C35         C866   1.403       .  S
C37          N38   1.369       .  A
C37          N42   1.377   1_545  A
C37         C234   1.519       .  S
N38          C39   1.362   1_545  A
C39          N40   1.367       .  A
C39         C858   1.479       .  S
N40          C41   1.373       .  A
C41          N42   1.380       .  A
C41         C315   1.521       .  S
C43          N44   1.339       .  A
C43          N48   1.354       .  A
C43         C856   1.401       .  S
N44          C45   1.339   1_565  A
C45          N46   1.357       .  A
C45         C853   1.407       .  S
N46          C47   1.359   1_545  A
C47          N48   1.358       .  A
C47         C849   1.469       .  S
C49          N50   1.371       .  A
C49          N54   1.378       .  A
C49         C425   1.520       .  S
N50          C51   1.364       .  A
C51          N52   1.364   1_554  A
C51         C887   1.479       .  S
N52          C53   1.371       .  A
C53          N54   1.379   1_556  A
C53         C480   1.517       .  S
C55          N56   1.357       .  A
C55          N60   1.341       .  A
C55         C846   1.400       .  S
N56          C57   1.357       .  A
C57          N58   1.360   1_554  A
C57         C870   1.471       .  S
N58          C59   1.353       .  A
C59          N60   1.338   1_556  A
C59         C848   1.409       .  S
C61          N62   1.378   1_556  A
C61          N66   1.370       .  A
C61         C270   1.520       .  S
N62          C63   1.380       .  A
C63          N64   1.373       .  A
C63         C678   1.523       .  S
N64          C65   1.368       .  A
C65          N66   1.364   1_554  A
C65         C877   1.481   1_554  S
C67          N68   1.359       .  A
C67          N72   1.341       .  A
C67         C844   1.402       .  S
N68          C69   1.359       .  A
C69          N70   1.358   1_556  A
C69         C879   1.469       .  S
N70          C71   1.350       .  A
C71          N72   1.338   1_554  A
C71         C841   1.404       .  S
C73          N74   1.371       .  A
C73          N78   1.382       .  A
C73         C482   1.527       .  S
N74          C75   1.366       .  A
C75          N76   1.364   1_565  A
C75         C867   1.477       .  S
N76          C77   1.369       .  A
C77          N78   1.382   1_545  A
C77         C627   1.525       .  S
C79          N80   1.352   1_545  A
C79          N84   1.339   1_545  A
C79         C837   1.402       .  S
N80          C81   1.358       .  A
C81          N82   1.359       .  A
C81         C850   1.471       .  S
N82          C83   1.359       .  A
C83          N84   1.341       .  A
C83         C839   1.404       .  S
C85          N86   1.380   1_545  A
C85          N90   1.373       .  A
C85         C681   1.525       .  S
N86          C87   1.380       .  A
C87          N88   1.367       .  A
C87         C170   1.516       .  S
N88          C89   1.361       .  A
C89          N90   1.367   1_565  A
C89         C857   1.478       .  S
C91          N92   1.339       .  A
C91          N96   1.356       .  A
C91         C835   1.407       .  S
N92          C93   1.339   1_565  A
C93          N94   1.354       .  A
C93         C833   1.399       .  S
N94          C95   1.355       .  A
C95          N96   1.362   1_545  A
C95         C860   1.469       .  S
C97          N98   1.370       .  A
C97         N102   1.382       .  A
C97         C659   1.519       .  S
N98          C99   1.365       .  A
C99         N100   1.366   1_655  A
C99         C831   1.482   1_545  S
N100        C101   1.372       .  A
C101        N102   1.379   1_455  A
C101        C236   1.528       .  S
C103        N104   1.352       .  A
C103        N108   1.338   1_655  A
C103        C830   1.403       .  S
N104        C105   1.358   1_655  A
C105        N106   1.360       .  A
C105        C824   1.469       .  S
N106        C107   1.358       .  A
C107        N108   1.339       .  A
C107        C828   1.406       .  S
C109        N110   1.371       .  A
C109        N114   1.383       .  A
C109        C347   1.525       .  S
N110        C111   1.366   1_455  A
C111        N112   1.365       .  A
C111        C832   1.482       .  S
N112        C113   1.372       .  A
C113        N114   1.380   1_655  A
C113        C516   1.527       .  S
C115        N116   1.357       .  A
C115        N120   1.341   1_655  A
C115        C821   1.409       .  S
N116        C117   1.361   1_655  A
C117        N118   1.351       .  A
C117        C815   1.463       .  S
N118        C119   1.351       .  A
C119        N120   1.341       .  A
C119        C820   1.396       .  S
C121        N122   1.382       .  A
C121        N126   1.372       .  A
C121        C204   1.524       .  S
N122        C123   1.380   1_455  A
C123        N124   1.371       .  A
C123        C393   1.527       .  S
N124        C125   1.365   1_655  A
C125        N126   1.367       .  A
C125        C813   1.481   1_455  S
C127        N128   1.339       .  A
C127        N132   1.356       .  A
C127        C812   1.408       .  S
N128        C129   1.339   1_455  A
C129        N130   1.352       .  A
C129        C810   1.394       .  S
N130        C131   1.353       .  A
C131        N132   1.362   1_655  A
C131        C816   1.464       .  S
C133        N134   1.371       .  A
C133        N138   1.383       .  A
C133        C582   1.523       .  S
N134        C135   1.365       .  A
C135        N136   1.364   1_655  A
C135        C814   1.480       .  S
N136        C137   1.370       .  A
C137        N138   1.381   1_455  A
C137        C713   1.525       .  S
C139        N140   1.342       .  A
C139        N144   1.356       .  A
C139        C807   1.402       .  S
N140        C141   1.341   1_655  A
C141        N142   1.353       .  A
C141        C805   1.405       .  S
N142        C143   1.357   1_455  A
C143        N144   1.357       .  A
C143        C823   1.467       .  S
C145        N146   1.373       .  A
C145        N150   1.380       .  A
C145        C206   1.520       .  S
N146        C147   1.367       .  A
C147        N148   1.363       .  A
C147        C803   1.481       .  S
N148        C149   1.370       .  A
C149        N150   1.377       .  A
C149        C715   1.520       .  S
C151        N152   1.356       .  A
C151        N156   1.341       .  A
C151        C802   1.405       .  S
N152        C153   1.358       .  A
C153        N154   1.358       .  A
C153        C796   1.469       .  S
N154        C155   1.355       .  A
C155        N156   1.340       .  A
C155        C800   1.405       .  S
O157       Zr193   2.490       .  S
O157        C168   1.302       .  A
O158       Zr192   2.453       .  S
O158        C169   1.295       .  A
O159       Zr165   2.481       .  S
O159        C170   1.300       .  A
O160       Zr165   2.443       .  S
O160        C171   1.293       .  A
O161       Zr195   2.388       .  S
O161        C171   1.281       .  A
O162       Zr194   2.492       .  S
O162        C170   1.300       .  A
O163       Zr165   2.393       .  S
O163        C169   1.283       .  A
O164       Zr165   2.505       .  S
O164        C168   1.303       .  A
Zr165       O166   2.371       .  S
Zr165       O167   2.336       .  S
Zr165       O175   2.324       .  S
Zr165       O173   2.354       .  S
O166       Zr192   2.318       .  S
O166       Zr195   2.336       .  S
O167       Zr193   2.344       .  S
O167       Zr194   2.339       .  S
C169        C791   1.410       .  S
C171        C884   1.408       .  S
H172        O173   0.963       .  S
O173       Zr192   2.393       .  S
O173       Zr194   2.327       .  S
H174        O175   0.963       .  S
O175       Zr193   2.353       .  S
O175       Zr195   2.385       .  S
O176       Zr192   2.502       .  S
O176        C199   1.304       .  A
O177       Zr193   2.473       .  S
O177        C200   1.299       .  A
O178       Zr194   2.464       .  S
O178        C201   1.297       .  A
O179       Zr195   2.492       .  S
O179        C202   1.302       .  A
O180       Zr195   2.448       .  S
O180        C203   1.294       .  A
O181       Zr194   2.497       .  S
O181        C204   1.304       .  A
O182       Zr196   2.456       .  S
O182        C205   1.295       .  A
O183       Zr196   2.487       .  S
O183        C206   1.301       .  A
O184       Zr194   2.375       .  S
O184        C205   1.279       .  A
O185       Zr195   2.495       .  S
O185        C206   1.302       .  A
O186       Zr192   2.373       .  S
O186        C201   1.279       .  A
O187       Zr193   2.500       .  S
O187        C204   1.302       .  A
O188       Zr193   2.391       .  S
O188        C203   1.282       .  A
O189       Zr192   2.486       .  S
O189        C202   1.299       .  A
O190       Zr196   2.480       .  S
O190        C199   1.298       .  A
O191       Zr196   2.368       .  S
O191        C200   1.277       .  A
Zr192       O198   2.341       .  S
Zr192       O210   2.335       .  S
Zr193       O197   2.368       .  S
Zr193       O208   2.321       .  S
Zr194       O198   2.369       .  S
Zr194       O208   2.355       .  S
Zr195       O197   2.322       .  S
Zr195       O210   2.336       .  S
Zr196       O197   2.342       .  S
Zr196       O198   2.316       .  S
Zr196       O210   2.340       .  S
Zr196       O208   2.384       .  S
C199        C277   1.520       .  S
C200        C811   1.413       .  S
C201        C836   1.411       .  S
C202        C369   1.517       .  S
C203        C799   1.407       .  S
C205        C793   1.403       .  S
H207        O208   0.962       .  S
H209        O210   0.965       .  S
C211        N212   1.371       .  A
C211        N216   1.379       .  A
C211        C709   1.525       .  S
N212        C213   1.365       .  A
C213        N214   1.365       .  A
C213        C790   1.480       .  S
N214        C215   1.371       .  A
C215        N216   1.381       .  A
C215        C268   1.520       .  S
C217        N218   1.358       .  A
C217        N222   1.342       .  A
C217        C787   1.405       .  S
N218        C219   1.357       .  A
C219        N220   1.355       .  A
C219        C781   1.466       .  S
N220        C221   1.350       .  A
C221        N222   1.341       .  A
C221        C786   1.399       .  S
O223       Zr259   2.457       .  S
O223        C234   1.296       .  A
O224       Zr258   2.450       .  S
O224        C235   1.295       .  A
O225       Zr231   2.477       .  S
O225        C236   1.299       .  A
O226       Zr231   2.456       .  S
O226        C237   1.295       .  A
O227       Zr261   2.377       .  S
O227        C237   1.279       .  A
O228       Zr260   2.528       .  S
O228        C236   1.308       .  A
O229       Zr231   2.388       .  S
O229        C235   1.282       .  A
O230       Zr231   2.526       .  S
O230        C234   1.307       .  A
Zr231       O232   2.373       .  S
Zr231       O233   2.339       .  S
Zr231       O241   2.314       .  S
Zr231       O239   2.363       .  S
O232       Zr258   2.319       .  S
O232       Zr261   2.335       .  S
O233       Zr259   2.338       .  S
O233       Zr260   2.340       .  S
C235        C785   1.404       .  S
C237        C854   1.410       .  S
H238        O239   0.962       .  S
O239       Zr258   2.394       .  S
O239       Zr260   2.316       .  S
H240        O241   0.962       .  S
O241       Zr259   2.358       .  S
O241       Zr261   2.387       .  S
O242       Zr258   2.497       .  S
O242        C265   1.303       .  A
O243       Zr259   2.446       .  S
O243        C266   1.292       .  A
O244       Zr260   2.461       .  S
O244        C267   1.296       .  A
O245       Zr261   2.493       .  S
O245        C268   1.302       .  A
O246       Zr261   2.455       .  S
O246        C269   1.295       .  A
O247       Zr260   2.469       .  S
O247        C270   1.298       .  A
O248       Zr262   2.453       .  S
O248        C271   1.295       .  A
O249       Zr262   2.493       .  S
O249        C272   1.303       .  A
O250       Zr260   2.388       .  S
O250        C271   1.282       .  A
O251       Zr261   2.483       .  S
O251        C272   1.299       .  A
O252       Zr258   2.379       .  S
O252        C267   1.280       .  A
O253       Zr259   2.518       .  S
O253        C270   1.306       .  A
O254       Zr259   2.389       .  S
O254        C269   1.282       .  A
O255       Zr258   2.491       .  S
O255        C268   1.300       .  A
O256       Zr262   2.499       .  S
O256        C265   1.302       .  A
O257       Zr262   2.389       .  S
O257        C266   1.282       .  A
Zr258       O264   2.331       .  S
Zr258       O276   2.337       .  S
Zr259       O263   2.359       .  S
Zr259       O274   2.318       .  S
Zr260       O264   2.366       .  S
Zr260       O274   2.365       .  S
Zr261       O263   2.312       .  S
Zr261       O276   2.340       .  S
Zr262       O263   2.328       .  S
Zr262       O264   2.313       .  S
Zr262       O276   2.341       .  S
Zr262       O274   2.393       .  S
C265        C291   1.525       .  S
C266        C843   1.409       .  S
C267        C827   1.411       .  S
C269        C777   1.407       .  S
C271        C780   1.404       .  S
C272        C589   1.516       .  S
H273        O274   0.963       .  S
H275        O276   0.965       .  S
C277        N278   1.370       .  A
C277        N282   1.382       .  A
N278        C279   1.365       .  A
C279        N280   1.365       .  A
C279        C776   1.480       .  S
N280        C281   1.371       .  A
C281        N282   1.378       .  A
C281        C343   1.526       .  S
C283        N284   1.358       .  A
C283        N288   1.338       .  A
C283        C774   1.403       .  S
N284        C285   1.359       .  A
C285        N286   1.357       .  A
C285        C782   1.465       .  S
N286        C287   1.351       .  A
C287        N288   1.337       .  A
C287        C794   1.398       .  S
C289        N290   1.379       .  A
C289        N294   1.368       .  A
C289        C349   1.519       .  S
N290        C291   1.381       .  A
C291        N292   1.373       .  A
N292        C293   1.368       .  A
C293        N294   1.362       .  A
C293        C804   1.481       .  S
C295        N296   1.352       .  A
C295        N300   1.339       .  A
C295        C779   1.400       .  S
N296        C297   1.357       .  A
C297        N298   1.359       .  A
C297        C768   1.468       .  S
N298        C299   1.358       .  A
C299        N300   1.341       .  A
C299        C772   1.406       .  S
O301       Zr337   2.478       .  S
O301        C312   1.300       .  A
O302       Zr336   2.451       .  S
O302        C313   1.294       .  A
O303       Zr309   2.468       .  S
O303        C314   1.298       .  A
O304       Zr309   2.491       .  S
O304        C315   1.302       .  A
O305       Zr339   2.499       .  S
O305        C315   1.302       .  A
O306       Zr338   2.379       .  S
O306        C314   1.280       .  A
O307       Zr309   2.384       .  S
O307        C313   1.281       .  A
O308       Zr309   2.503       .  S
O308        C312   1.303       .  A
Zr309       O310   2.337       .  S
Zr309       O311   2.314       .  S
Zr309       O319   2.345       .  S
Zr309       O317   2.391       .  S
O310       Zr336   2.368       .  S
O310       Zr339   2.316       .  S
O311       Zr337   2.338       .  S
O311       Zr338   2.368       .  S
C313        C766   1.410       .  S
C314        C886   1.408       .  S
H316        O317   0.962       .  S
O317       Zr336   2.309       .  S
O317       Zr338   2.356       .  S
H318        O319   0.965       .  S
O319       Zr337   2.337       .  S
O319       Zr339   2.337       .  S
O320       Zr336   2.469       .  S
O320        C343   1.298       .  A
O321       Zr337   2.437       .  S
O321        C344   1.292       .  A
O322       Zr338   2.473       .  S
O322        C345   1.298       .  A
O323       Zr339   2.459       .  S
O323        C346   1.297       .  A
O324       Zr339   2.500       .  S
O324        C347   1.304       .  A
O325       Zr338   2.461       .  S
O325        C348   1.295       .  A
O326       Zr340   2.473       .  S
O326        C349   1.299       .  A
O327       Zr340   2.454       .  S
O327        C350   1.295       .  A
O328       Zr338   2.511       .  S
O328        C349   1.304       .  A
O329       Zr339   2.383       .  S
O329        C350   1.280       .  A
O330       Zr336   2.529       .  S
O330        C345   1.308       .  A
O331       Zr337   2.387       .  S
O331        C348   1.281       .  A
O332       Zr337   2.496       .  S
O332        C347   1.301       .  A
O333       Zr336   2.385       .  S
O333        C346   1.281       .  A
O334       Zr340   2.531       .  S
O334        C343   1.308       .  A
O335       Zr340   2.402       .  S
O335        C344   1.285       .  A
Zr336       O342   2.337       .  S
Zr336       O354   2.361       .  S
Zr337       O341   2.312       .  S
Zr337       O352   2.389       .  S
Zr338       O342   2.342       .  S
Zr338       O352   2.310       .  S
Zr339       O341   2.334       .  S
Zr339       O354   2.393       .  S
Zr340       O341   2.368       .  S
Zr340       O342   2.340       .  S
Zr340       O354   2.319       .  S
Zr340       O352   2.360       .  S
C344        C819   1.402       .  S
C345        C447   1.528       .  S
C346        C855   1.407       .  S
C348        C771   1.412       .  S
C350        C773   1.408       .  S
H351        O352   0.963       .  S
H353        O354   0.963       .  S
C355        N356   1.380       .  A
C355        N360   1.369       .  A
C355        C584   1.520       .  S
N356        C357   1.381       .  A
C357        N358   1.372       .  A
C357        C421   1.525       .  S
N358        C359   1.366       .  A
C359        N360   1.363       .  A
C359        C763   1.479       .  S
C361        N362   1.342       .  A
C361        N366   1.358       .  A
C361        C759   1.405       .  S
N362        C363   1.340       .  A
C363        N364   1.353       .  A
C363        C762   1.408       .  S
N364        C365   1.359       .  A
C365        N366   1.358       .  A
C365        C795   1.471       .  S
C367        N368   1.379       .  A
C367        N372   1.372       .  A
C367        C427   1.523       .  S
N368        C369   1.381       .  A
C369        N370   1.369       .  A
N370        C371   1.363       .  A
C371        N372   1.365       .  A
C371        C757   1.480       .  S
C373        N374   1.343       .  A
C373        N378   1.360       .  A
C373        C756   1.408       .  S
N374        C375   1.340       .  A
C375        N376   1.350       .  A
C375        C792   1.407       .  S
N376        C377   1.357       .  A
C377        N378   1.359       .  A
C377        C751   1.471       .  S
O379       Zr415   2.461       .  S
O379        C390   1.296       .  A
O380       Zr414   2.461       .  S
O380        C391   1.296       .  A
O381       Zr387   2.449       .  S
O381        C392   1.294       .  A
O382       Zr387   2.479       .  S
O382        C393   1.300       .  A
O383       Zr417   2.522       .  S
O383        C393   1.306       .  A
O384       Zr416   2.399       .  S
O384        C392   1.285       .  A
O385       Zr387   2.395       .  S
O385        C391   1.283       .  A
O386       Zr387   2.519       .  S
O386        C390   1.306       .  A
Zr387       O388   2.344       .  S
Zr387       O389   2.307       .  S
Zr387       O397   2.344       .  S
Zr387       O395   2.397       .  S
O388       Zr414   2.375       .  S
O388       Zr417   2.314       .  S
O389       Zr415   2.339       .  S
O389       Zr416   2.362       .  S
C391        C750   1.416       .  S
C392        C865   1.408       .  S
H394        O395   0.963       .  S
O395       Zr414   2.323       .  S
O395       Zr416   2.357       .  S
H396        O397   0.965       .  S
O397       Zr415   2.347       .  S
O397       Zr417   2.340       .  S
O398       Zr414   2.489       .  S
O398        C421   1.302       .  A
O399       Zr415   2.453       .  S
O399        C422   1.295       .  A
O400       Zr416   2.473       .  S
O400        C423   1.298       .  A
O401       Zr417   2.437       .  S
O401        C424   1.291       .  A
O402       Zr417   2.467       .  S
O402        C425   1.298       .  A
O403       Zr416   2.462       .  S
O403        C426   1.296       .  A
O404       Zr418   2.472       .  S
O404        C427   1.298       .  A
O405       Zr418   2.454       .  S
O405        C428   1.294       .  A
O406       Zr416   2.523       .  S
O406        C427   1.307       .  A
O407       Zr417   2.400       .  S
O407        C428   1.284       .  A
O408       Zr414   2.517       .  S
O408        C423   1.306       .  A
O409       Zr415   2.392       .  S
O409        C426   1.283       .  A
O410       Zr415   2.519       .  S
O410        C425   1.306       .  A
O411       Zr414   2.392       .  S
O411        C424   1.283       .  A
O412       Zr418   2.511       .  S
O412        C421   1.305       .  A
O413       Zr418   2.390       .  S
O413        C422   1.282       .  A
Zr414       O420   2.339       .  S
Zr414       O432   2.355       .  S
Zr415       O419   2.300       .  S
Zr415       O430   2.385       .  S
Zr416       O420   2.340       .  S
Zr416       O430   2.313       .  S
Zr417       O419   2.340       .  S
Zr417       O432   2.393       .  S
Zr418       O419   2.361       .  S
Zr418       O420   2.339       .  S
Zr418       O432   2.321       .  S
Zr418       O430   2.353       .  S
C422        C845   1.407       .  S
C423        C437   1.521       .  S
C424        C809   1.401       .  S
C426        C755   1.416       .  S
C428        C760   1.413       .  S
H429        O430   0.962       .  S
H431        O432   0.963       .  S
C433        N434   1.371       .  A
C433        N438   1.379       .  A
C433        C511   1.518       .  S
N434        C435   1.365       .  A
C435        N436   1.365       .  A
C435        C775   1.480       .  S
N436        C437   1.371       .  A
C437        N438   1.378       .  A
C439        N440   1.353       .  A
C439        N444   1.342       .  A
C439        C747   1.399       .  S
N440        C441   1.353       .  A
C441        N442   1.360       .  A
C441        C743   1.467       .  S
N442        C443   1.356       .  A
C443        N444   1.342       .  A
C443        C749   1.410       .  S
C445        N446   1.382       .  A
C445        N450   1.369       .  A
C445        C514   1.522       .  S
N446        C447   1.380       .  A
C447        N448   1.373       .  A
N448        C449   1.367       .  A
C449        N450   1.364       .  A
C449        C742   1.481       .  S
C451        N452   1.356       .  A
C451        N456   1.340       .  A
C451        C765   1.405       .  S
N452        C453   1.358       .  A
C453        N454   1.357       .  A
C453        C752   1.466       .  S
N454        C455   1.354       .  A
C455        N456   1.340       .  A
C455        C740   1.400       .  S
C457        N458   1.372       .  A
C457        N462   1.379       .  A
C457        C661   1.522       .  S
N458        C459   1.366       .  A
C459        N460   1.364       .  A
C459        C764   1.478       .  S
N460        C461   1.369       .  A
C461        N462   1.379       .  A
C461        C518   1.520       .  S
C463        N464   1.340       .  A
C463        N468   1.353       .  A
C463        C737   1.405       .  S
N464        C465   1.341       .  A
C465        N466   1.358       .  A
C465        C735   1.410       .  S
N466        C467   1.359       .  A
C467        N468   1.358       .  A
C467        C767   1.469       .  S
O469       Zr505   2.481       .  S
O469        C480   1.300       .  A
O470       Zr504   2.444       .  S
O470        C481   1.293       .  A
O471       Zr477   2.496       .  S
O471        C482   1.303       .  A
O472       Zr477   2.468       .  S
O472        C483   1.297       .  A
O473       Zr507   2.378       .  S
O473        C483   1.280       .  A
O474       Zr506   2.510       .  S
O474        C482   1.304       .  A
O475       Zr477   2.387       .  S
O475        C481   1.281       .  A
O476       Zr477   2.499       .  S
O476        C480   1.302       .  A
Zr477       O478   2.370       .  S
Zr477       O479   2.340       .  S
Zr477       O487   2.324       .  S
Zr477       O485   2.354       .  S
O478       Zr504   2.322       .  S
O478       Zr507   2.347       .  S
O479       Zr505   2.339       .  S
O479       Zr506   2.340       .  S
C481        C739   1.404       .  S
C483        C847   1.413       .  S
H484        O485   0.963       .  S
O485       Zr504   2.381       .  S
O485       Zr506   2.323       .  S
H486        O487   0.964       .  S
O487       Zr505   2.357       .  S
O487       Zr507   2.393       .  S
O488       Zr504   2.476       .  S
O488        C511   1.299       .  A
O489       Zr505   2.467       .  S
O489        C512   1.297       .  A
O490       Zr506   2.450       .  S
O490        C513   1.294       .  A
O491       Zr507   2.503       .  S
O491        C514   1.305       .  A
O492       Zr507   2.466       .  S
O492        C515   1.297       .  A
O493       Zr506   2.470       .  S
O493        C516   1.298       .  A
O494       Zr508   2.450       .  S
O494        C517   1.294       .  A
O495       Zr508   2.483       .  S
O495        C518   1.301       .  A
O496       Zr506   2.398       .  S
O496        C517   1.284       .  A
O497       Zr507   2.502       .  S
O497        C518   1.302       .  A
O498       Zr504   2.392       .  S
O498        C513   1.282       .  A
O499       Zr505   2.526       .  S
O499        C516   1.308       .  A
O500       Zr505   2.386       .  S
O500        C515   1.281       .  A
O501       Zr504   2.487       .  S
O501        C514   1.299       .  A
O502       Zr508   2.503       .  S
O502        C511   1.303       .  A
O503       Zr508   2.379       .  S
O503        C512   1.280       .  A
Zr504       O510   2.338       .  S
Zr504       O522   2.341       .  S
Zr505       O509   2.376       .  S
Zr505       O520   2.305       .  S
Zr506       O510   2.365       .  S
Zr506       O520   2.353       .  S
Zr507       O509   2.320       .  S
Zr507       O522   2.340       .  S
Zr508       O509   2.343       .  S
Zr508       O510   2.311       .  S
Zr508       O522   2.337       .  S
Zr508       O520   2.388       .  S
C512        C822   1.414       .  S
C513        C840   1.410       .  S
C515        C738   1.410       .  S
C517        C748   1.406       .  S
H519        O520   0.962       .  S
H521        O522   0.965       .  S
C523        N524   1.372       .  A
C523        N528   1.379       .  A
C523        C711   1.526       .  S
N524        C525   1.366       .  A
C525        N526   1.365       .  A
C525        C758   1.480       .  S
N526        C527   1.370       .  A
C527        N528   1.381       .  A
C527        C580   1.521       .  S
C529        N530   1.352       .  A
C529        N534   1.340       .  A
C529        C733   1.410       .  S
N530        C531   1.358       .  A
C531        N532   1.359       .  A
C531        C727   1.472       .  S
N532        C533   1.359       .  A
C533        N534   1.343       .  A
C533        C731   1.407       .  S
O535       Zr571   2.475       .  S
O535        C546   1.298       .  A
O536       Zr570   2.460       .  S
O536        C547   1.296       .  A
O537       Zr543   2.490       .  S
O537        C548   1.302       .  A
O538       Zr543   2.461       .  S
O538        C549   1.296       .  A
O539       Zr573   2.389       .  S
O539        C549   1.282       .  A
O540       Zr572   2.483       .  S
O540        C548   1.299       .  A
O541       Zr543   2.391       .  S
O541        C547   1.283       .  A
O542       Zr543   2.509       .  S
O542        C546   1.304       .  A
Zr543       O544   2.363       .  S
Zr543       O545   2.336       .  S
Zr543       O553   2.337       .  S
Zr543       O551   2.358       .  S
O544       Zr570   2.305       .  S
O544       Zr573   2.336       .  S
O545       Zr571   2.334       .  S
O545       Zr572   2.340       .  S
C547        C734   1.412       .  S
C549        C874   1.413       .  S
H550        O551   0.963       .  S
O551       Zr570   2.390       .  S
O551       Zr572   2.334       .  S
H552        O553   0.964       .  S
O553       Zr571   2.356       .  S
O553       Zr573   2.400       .  S
O554       Zr570   2.483       .  S
O554        C577   1.301       .  A
O555       Zr571   2.448       .  S
O555        C578   1.293       .  A
O556       Zr572   2.463       .  S
O556        C579   1.296       .  A
O557       Zr573   2.490       .  S
O557        C580   1.302       .  A
O558       Zr573   2.462       .  S
O558        C581   1.297       .  A
O559       Zr572   2.496       .  S
O559        C582   1.303       .  A
O560       Zr574   2.457       .  S
O560        C583   1.295       .  A
O561       Zr574   2.474       .  S
O561        C584   1.300       .  A
O562       Zr572   2.385       .  S
O562        C583   1.281       .  A
O563       Zr573   2.509       .  S
O563        C584   1.304       .  A
O564       Zr570   2.379       .  S
O564        C579   1.280       .  A
O565       Zr571   2.500       .  S
O565        C582   1.302       .  A
O566       Zr571   2.382       .  S
O566        C581   1.281       .  A
O567       Zr570   2.499       .  S
O567        C580   1.302       .  A
O568       Zr574   2.504       .  S
O568        C577   1.303       .  A
O569       Zr574   2.387       .  S
O569        C578   1.282       .  A
Zr570       O576   2.342       .  S
Zr570       O588   2.344       .  S
Zr571       O575   2.357       .  S
Zr571       O586   2.319       .  S
Zr572       O576   2.362       .  S
Zr572       O586   2.347       .  S
Zr573       O575   2.301       .  S
Zr573       O588   2.348       .  S
Zr574       O575   2.335       .  S
Zr574       O576   2.307       .  S
Zr574       O588   2.346       .  S
Zr574       O586   2.383       .  S
C577        C605   1.522       .  S
C578        C808   1.407       .  S
C579        C863   1.411       .  S
C581        C761   1.410       .  S
C583        C726   1.407       .  S
H585        O586   0.962       .  S
H587        O588   0.964       .  S
C589        N590   1.368       .  A
C589        N594   1.381       .  A
N590        C591   1.363       .  A
C591        N592   1.367       .  A
C591        C741   1.480       .  S
N592        C593   1.373       .  A
C593        N594   1.379       .  A
C593        C657   1.526       .  S
C595        N596   1.339       .  A
C595        N600   1.355       .  A
C595        C778   1.404       .  S
N596        C597   1.340       .  A
C597        N598   1.357       .  A
C597        C724   1.405       .  S
N598        C599   1.359       .  A
C599        N600   1.358       .  A
C599        C728   1.468       .  S
C601        N602   1.370       .  A
C601        N606   1.380       .  A
C601        C655   1.522       .  S
N602        C603   1.365       .  A
C603        N604   1.366       .  A
C603        C789   1.480       .  S
N604        C605   1.371       .  A
C605        N606   1.380       .  A
C607        N608   1.354       .  A
C607        N612   1.338       .  A
C607        C725   1.402       .  S
N608        C609   1.356       .  A
C609        N610   1.362       .  A
C609        C744   1.467   1_545  S
N610        C611   1.357       .  A
C611        N612   1.338       .  A
C611        C721   1.407       .  S
O613       Zr649   2.480       .  S
O613        C624   1.300       .  A
O614       Zr648   2.464       .  S
O614        C625   1.297       .  A
O615       Zr621   2.446       .  S
O615        C626   1.293       .  A
O616       Zr621   2.488       .  S
O616        C627   1.302       .  A
O617       Zr651   2.505       .  S
O617        C627   1.302       .  A
O618       Zr650   2.407       .  S
O618        C626   1.286       .  A
O619       Zr621   2.380       .  S
O619        C625   1.280       .  A
O620       Zr621   2.492       .  S
O620        C624   1.301       .  A
Zr621       O622   2.331       .  S
Zr621       O623   2.312       .  S
Zr621       O631   2.338       .  S
Zr621       O629   2.392       .  S
O622       Zr648   2.369       .  S
O622       Zr651   2.308       .  S
O623       Zr649   2.335       .  S
O623       Zr650   2.357       .  S
C625        C723   1.411       .  S
C626        C876   1.410       .  S
H628        O629   0.964       .  S
O629       Zr648   2.322       .  S
O629       Zr650   2.358       .  S
H630        O631   0.965       .  S
O631       Zr649   2.347       .  S
O631       Zr651   2.336       .  S
O632       Zr648   2.490       .  S
O632        C655   1.302       .  A
O633       Zr649   2.465       .  S
O633        C656   1.297       .  A
O634       Zr650   2.476       .  S
O634        C657   1.299       .  A
O635       Zr651   2.457       .  S
O635        C658   1.296       .  A
O636       Zr651   2.500       .  S
O636        C659   1.304       .  A
O637       Zr650   2.464       .  S
O637        C660   1.296       .  A
O638       Zr652   2.486       .  S
O638        C661   1.301       .  A
O639       Zr652   2.477       .  S
O639        C662   1.299       .  A
O640       Zr650   2.509       .  S
O640        C661   1.305       .  A
O641       Zr651   2.365       .  S
O641        C662   1.277       .  A
O642       Zr648   2.524       .  S
O642        C657   1.308       .  A
O643       Zr649   2.386       .  S
O643        C660   1.281       .  A
O644       Zr649   2.480       .  S
O644        C659   1.298       .  A
O645       Zr648   2.391       .  S
O645        C658   1.283       .  A
O646       Zr652   2.501       .  S
O646        C655   1.302       .  A
O647       Zr652   2.374       .  S
O647        C656   1.279       .  A
Zr648       O654   2.335       .  S
Zr648       O666   2.359       .  S
Zr649       O653   2.316       .  S
Zr649       O664   2.379       .  S
Zr650       O654   2.345       .  S
Zr650       O664   2.330       .  S
Zr651       O653   2.345       .  S
Zr651       O666   2.398       .  S
Zr652       O653   2.367       .  S
Zr652       O654   2.342       .  S
Zr652       O666   2.317       .  S
Zr652       O664   2.358       .  S
C656        C829   1.407       .  S
C658        C838   1.407       .  S
C660        C736   1.417       .  S
C662        C722   1.412       .  S
H663        O664   0.962       .  S
H665        O666   0.963       .  S
O667       Zr703   2.493       .  S
O667        C678   1.303       .  A
O668       Zr702   2.459       .  S
O668        C679   1.295       .  A
O669       Zr675   2.461       .  S
O669        C680   1.297       .  A
O670       Zr675   2.483       .  S
O670        C681   1.300       .  A
O671       Zr705   2.514       .  S
O671        C681   1.305       .  A
O672       Zr704   2.382       .  S
O672        C680   1.281       .  A
O673       Zr675   2.390       .  S
O673        C679   1.282       .  A
O674       Zr675   2.502       .  S
O674        C678   1.303       .  A
Zr675       O676   2.332       .  S
Zr675       O677   2.305       .  S
Zr675       O685   2.348       .  S
Zr675       O683   2.395       .  S
O676       Zr702   2.360       .  S
O676       Zr705   2.309       .  S
O677       Zr703   2.334       .  S
O677       Zr704   2.363       .  S
C679        C732   1.415       .  S
C680        C842   1.407       .  S
H682        O683   0.963       .  S
O683       Zr702   2.326       .  S
O683       Zr704   2.364       .  S
H684        O685   0.965       .  S
O685       Zr703   2.345       .  S
O685       Zr705   2.340       .  S
O686       Zr702   2.471       .  S
O686        C709   1.298       .  A
O687       Zr703   2.457       .  S
O687        C710   1.296       .  A
O688       Zr704   2.480       .  S
O688        C711   1.300       .  A
O689       Zr705   2.448       .  S
O689        C712   1.294       .  A
O690       Zr705   2.479       .  S
O690        C713   1.300       .  A
O691       Zr704   2.460       .  S
O691        C714   1.295       .  A
O692       Zr706   2.464       .  S
O692        C715   1.297       .  A
O693       Zr706   2.450       .  S
O693        C716   1.294       .  A
O694       Zr704   2.521       .  S
O694        C715   1.307       .  A
O695       Zr705   2.390       .  S
O695        C716   1.282       .  A
O696       Zr702   2.518       .  S
O696        C711   1.306       .  A
O697       Zr703   2.395       .  S
O697        C714   1.283       .  A
O698       Zr703   2.515       .  S
O698        C713   1.305       .  A
O699       Zr702   2.396       .  S
O699        C712   1.284       .  A
O700       Zr706   2.528       .  S
O700        C709   1.308       .  A
O701       Zr706   2.402       .  S
O701        C710   1.285       .  A
Zr702       O708   2.339       .  S
Zr702       O720   2.358       .  S
Zr703       O707   2.315       .  S
Zr703       O718   2.402       .  S
Zr704       O708   2.335       .  S
Zr704       O718   2.326       .  S
Zr705       O707   2.339       .  S
Zr705       O720   2.389       .  S
Zr706       O707   2.372       .  S
Zr706       O708   2.338       .  S
Zr706       O720   2.311       .  S
Zr706       O718   2.363       .  S
C710        C806   1.411       .  S
C712        C834   1.405       .  S
C714        C801   1.414       .  S
C716        C788   1.410       .  S
H717        O718   0.962       .  S
H719        O720   0.962       .  S
C721        C722   1.194       .  T
C723        C724   1.192       .  T
C725        C726   1.190       .  T
C727        C728   1.344   1_554  D
C727        H729   1.086   1_554  S
C728        H730   1.086   1_556  S
C731        C732   1.194       .  T
C733        C734   1.193       .  T
C735        C736   1.195       .  T
C737        C738   1.192       .  T
C739        C740   1.189       .  T
C741        C742   1.233       .  T
C743        C744   1.338       .  D
C743        H745   1.087       .  S
C744        H746   1.087       .  S
C747        C748   1.189       .  T
C749        C750   1.194       .  T
C751        C752   1.345   1_554  D
C751        H753   1.086       .  S
C752        H754   1.086   1_556  S
C755        C756   1.194       .  T
C757        C758   1.232       .  T
C759        C760   1.192       .  T
C761        C762   1.192       .  T
C763        C764   1.231       .  T
C765        C766   1.192       .  T
C767        C768   1.345   1_655  D
C767        H769   1.087   1_655  S
C768        H770   1.086   1_455  S
C771        C772   1.192       .  T
C773        C774   1.191       .  T
C775        C776   1.232       .  T
C777        C778   1.190       .  T
C779        C780   1.188       .  T
C781        C782   1.344   1_545  D
C781        H783   1.086   1_545  S
C782        H784   1.086       .  S
C785        C786   1.188       .  T
C787        C788   1.192       .  T
C789        C790   1.232       .  T
C791        C792   1.192       .  T
C793        C794   1.188       .  T
C795        C796   1.343   1_655  D
C795        H797   1.087   1_655  S
C796        H798   1.086   1_455  S
C799        C800   1.190       .  T
C801        C802   1.192       .  T
C803        C804   1.233       .  T
C805        C806   1.191       .  T
C807        C808   1.189       .  T
C809        C810   1.186       .  T
C811        C812   1.194       .  T
C813        C814   1.232   1_565  T
C815        C816   1.335   1_455  D
C815        H817   1.087       .  S
C816        H818   1.087       .  S
C819        C820   1.187       .  T
C821        C822   1.194       .  T
C823        C824   1.344   1_655  D
C823        H825   1.086       .  S
C824        H826   1.086       .  S
C827        C828   1.192       .  T
C829        C830   1.191       .  T
C831        C832   1.233       .  T
C833        C834   1.188       .  T
C835        C836   1.193       .  T
C837        C838   1.190       .  T
C839        C840   1.192       .  T
C841        C842   1.190       .  T
C843        C844   1.190       .  T
C845        C846   1.190       .  T
C847        C848   1.193       .  T
C849        C850   1.345       .  D
C849        H851   1.086   1_565  S
C850        H852   1.086       .  S
C853        C854   1.192       .  T
C855        C856   1.191       .  T
C857        C858   1.231   1_554  T
C859        C860   1.338   1_565  D
C859        H861   1.087       .  S
C860        H862   1.086       .  S
C863        C864   1.192       .  T
C865        C866   1.189       .  T
C867        C868   1.230   1_556  T
C869        C870   1.340   1_556  D
C869        H871   1.087       .  S
C870        H872   1.086       .  S
C873        C874   1.192       .  T
C875        C876   1.191       .  T
C877        C878   1.233   1_455  T
C879        C880   1.342   1_556  D
C879        H881   1.086       .  S
C880        H882   1.086       .  S
C883        C884   1.191       .  T
C885        C886   1.191       .  T
C887        C888   1.231   1_655  T
