geometry optimzed in LAMMPS
_audit_creation_date              2020-11-30 
_audit_creation_method            'lammps2cif' 
_symmetry_space_group_name_H-M    'P1' 
_symmetry_Int_Tables_number       1 
_symmetry_cell_setting            triclinic 
loop_ 
_symmetry_equiv_pos_as_xyz 
  x,y,z 
_cell_length_a                    52.6962406 
_cell_length_b                    45.64914795259525 
_cell_length_c                    37.64751218106614 
_cell_angle_alpha                 93.13230210165399 
_cell_angle_beta                  90.34922934882947 
_cell_angle_gamma                 125.37473767122158 
loop_ 
_atom_site_label 
_atom_site_type_symbol 
_atom_site_fract_x 
_atom_site_fract_y 
_atom_site_fract_z 
_atom_site_charge 
C1          C  0.33813553  0.17776911  0.06535468     0.32500
C2          C  0.34160415  0.17940627  0.49326509     0.32500
C3          C  0.30667304  0.15837525  0.04438915    -0.03700
C4          C  0.35681410  0.21494587  0.05040806    -0.04500
C5          C  0.35311446  0.16018791  0.04869801    -0.04400
C6          C  0.30906527  0.16095868  0.50833755    -0.03700
C7          C  0.35959619  0.21712133  0.51221532    -0.04500
C8          C  0.35518517  0.16208215  0.51187355    -0.04400
C9          C  0.27938354  0.14756992  0.49548738    -0.29800
N10         N  0.26119629  0.14050517  0.52374821     0.16700
C11         C  0.27698835  0.14753351  0.05208528    -0.29800
H12         H  0.26840108  0.14673805  0.07832086     0.18700
C13         C  0.37783306  0.25194743  0.50244097    -0.28700
N14         N  0.38483365  0.27120937  0.03545285     0.15500
C15         C  0.37348091  0.25039379  0.06355539    -0.28700
C16         C  0.37119545  0.14769963  0.50220960    -0.29000
N17         N  0.38000833  0.14029906  0.53238176     0.16000
H18         H  0.37690721  0.14400801  0.47553026     0.18600
C19         C  0.37046841  0.14874869  0.06094637    -0.29000
H20         H  0.37560650  0.14752234  0.08849366     0.18600
H21         H  0.37718957  0.26030851  0.09122816     0.18600
H22         H  0.27200010  0.14504025  0.46792340     0.18700
H23         H  0.38339485  0.26053951  0.47563369     0.18600
C24         C  0.35489950  0.18008547  0.31573631     0.32500
C25         C  0.35037944  0.17843781  0.24372403     0.32500
C26         C  0.32177792  0.15917337  0.29921673    -0.03700
C27         C  0.37071879  0.21682275  0.30022183    -0.04500
C28         C  0.36915711  0.16329219  0.29532420    -0.04400
C29         C  0.31935638  0.15831179  0.26224190    -0.03700
C30         C  0.36837629  0.21590595  0.26326221    -0.04500
C31         C  0.36688738  0.16243350  0.25826755    -0.04400
C32         C  0.28936756  0.14687603  0.25328954    -0.29800
N33         N  0.27382224  0.14041152  0.28371213     0.16700
C34         C  0.29333925  0.14826450  0.31189404    -0.29800
H35         H  0.28783937  0.14836713  0.33954798     0.18700
C36         C  0.38324861  0.25079487  0.25415743    -0.28700
N37         N  0.39446397  0.27256599  0.28456600     0.15500
C38         C  0.38703016  0.25236215  0.31293683    -0.28700
C39         C  0.38290942  0.14912451  0.24478497    -0.29000
N40         N  0.39461102  0.14202779  0.27264611     0.16000
H41         H  0.38654118  0.14581927  0.21700918     0.18600
C42         C  0.38645896  0.15056574  0.30355696    -0.29000
H43         H  0.39338589  0.14863168  0.32996812     0.18600
H44         H  0.39295831  0.26274587  0.34052717     0.18600
H45         H  0.28018100  0.14565839  0.22703231     0.18700
H46         H  0.38567891  0.25973514  0.22755256     0.18600
C47         C  0.10983139  0.06752254  0.02504998     0.78900
Tb48       Tb  0.47423005  0.01973915  0.03543625     1.80700
O49         O  0.09899699  0.05368539  0.05400772    -0.49100
O50         O  0.04398740  0.47322522  0.05797749    -0.56500
C51         C  0.04557443  0.08734052  0.03544870     0.94700
O52         O  0.47597403  0.06912637  0.06174513    -0.56100
Tb53       Tb  0.04584281  0.01847864  0.03547381     1.78100
O54         O  0.42331551  0.47356069  0.01302242    -0.56600
O55         O  0.99408791  0.46470678  0.00962345    -0.75400
O56         O  0.05235734  0.07166921  0.05601762    -0.74700
O57         O  0.03060993  0.02169067  0.47730282    -0.60000
C58         C  0.47210104  0.44896302  0.03064485     0.94300
O59         O  0.49398965  0.02968800  0.09411297    -0.71900
C60         C  0.40964991  0.96919922  0.03351212     0.77800
C61         C  0.05547239  0.46551644  0.03296749     0.78800
O62         O  0.08903360  0.05847625  0.00139357    -0.57100
O63         O  0.05941104  0.48192855  0.00541088    -0.49100
O64         O  0.98091951  0.00372332  0.47718815    -0.75200
O65         O  0.02838359  0.01559418  0.09474927    -0.59200
C66         C  0.01106855  0.02303366  0.11066574     0.92600
C67         C  0.00512815  0.01197826  0.46107926     0.93800
C68         C  0.45337129  0.06221597  0.53763676     0.78100
O69         O  0.42498692  0.99159563  0.05951789    -0.48500
O70         O  0.44839412  0.04174305  0.51074668    -0.49600
O71         O  0.46586972  0.46631483  0.05163872    -0.62500
O72         O  0.02093404  0.06951615  0.01572479    -0.63600
C73         C  0.12351184  0.06771301  0.29133619     0.78900
Tb74       Tb  0.48526170  0.01735908  0.28609533     1.80700
O75         O  0.10685602  0.06356873  0.31715696    -0.49100
O76         O  0.04572321  0.47577986  0.30732327    -0.56500
C77         C  0.05444487  0.08617867  0.28643802     0.94700
O78         O  0.47111654  0.05534600  0.30740728    -0.56100
Tb79       Tb  0.05860936  0.01884020  0.28721931     1.78100
O80         O  0.42300206  0.47373712  0.26580924    -0.56600
O81         O  0.99550311  0.46659506  0.26054073    -0.75400
O82         O  0.06248119  0.06914046  0.26790055    -0.74700
O83         O  0.03985068  0.01007625  0.22832476    -0.60000
C84         C  0.47371082  0.45025148  0.28179001     0.94300
O85         O  0.99979714  0.01393708  0.34518888    -0.71900
C86         C  0.42066598  0.97010729  0.29356528     0.77800
C87         C  0.05815102  0.46913020  0.28261720     0.78800
O88         O  0.10813482  0.04865461  0.26361649    -0.57100
O89         O  0.06235514  0.48595408  0.25529409    -0.49100
O90         O  0.00244311  0.01940375  0.22697106    -0.75200
O91         O  0.04886591  0.02966959  0.34527453    -0.59200
C92         C  0.02487708  0.02226022  0.36139720     0.92600
C93         C  0.02126748  0.01419629  0.21145090     0.93800
C94         C  0.47113017  0.06727146  0.27807026     0.78100
O95         O  0.44039919  0.97834109  0.31828961    -0.48500
O96         O  0.47965563  0.05599628  0.25283694    -0.49600
O97         O  0.46672033  0.46690817  0.30270741    -0.62300
O98         O  0.03222563  0.07014687  0.30706127    -0.63600
C99         C  0.17659861  0.35766009  0.00200285     0.32500
C100        C  0.17814600  0.35965211  0.07373510     0.32500
C101        C  0.15883668  0.37103134  0.02011880    -0.03700
C102        C  0.16292412  0.32138311  0.01777199    -0.04500
C103        C  0.20922491  0.38201285  0.02019956    -0.04400
C104        C  0.15959955  0.37206996  0.05704569    -0.03700
C105        C  0.16375763  0.32252375  0.05472346    -0.04500
C106        C  0.21011028  0.38297118  0.05745720    -0.04400
C107        C  0.14144329  0.38315921  0.06853125    -0.29800
N108        N  0.12987440  0.38873601  0.03939730     0.16700
C109        C  0.14027385  0.38147592  0.00968781    -0.29800
H110        H  0.13445373  0.38326461  0.98263424     0.18700
C111        C  0.14891334  0.28778786  0.06436585    -0.28700
N112        N  0.13922237  0.26580843  0.03416909     0.15500
C113        C  0.14750689  0.28580470  0.00548927    -0.28700
C114        C  0.23956194  0.39358962  0.06822760    -0.29000
N115        N  0.25646822  0.40016633  0.03898249     0.16000
H116        H  0.24731076  0.39375140  0.09498499     0.18600
C117        C  0.23813522  0.39234136  0.00960584    -0.29000
H118        H  0.24456811  0.39138357  0.98253200     0.18600
H119        H  0.14175082  0.27512930  0.97798468     0.18600
H120        H  0.13670878  0.38652237  0.09581898     0.18700
H121        H  0.14447114  0.27898604  0.09116120     0.18600
C122        C  0.17528131  0.35618293  0.25122878     0.32500
C123        C  0.17609926  0.35705625  0.32306061     0.32500
C124        C  0.16193401  0.37485393  0.26973666    -0.03700
C125        C  0.15684888  0.31916982  0.26638964    -0.04500
C126        C  0.20753542  0.37488047  0.26965864    -0.04400
C127        C  0.16229381  0.37529392  0.30674027    -0.03700
C128        C  0.15729399  0.31966800  0.30335042    -0.04500
C129        C  0.20802888  0.37535867  0.30664874    -0.04400
C130        C  0.14529485  0.38793787  0.31827632    -0.29800
N131        N  0.13498054  0.39521738  0.28925091     0.16700
C132        C  0.14478516  0.38721815  0.25947115    -0.29800
H133        H  0.13855252  0.38855374  0.23244781     0.18700
C134        C  0.14077962  0.28455222  0.31225234    -0.28700
N135        N  0.13042873  0.26308267  0.28164972     0.15500
C136        C  0.14003673  0.28369646  0.25339169    -0.28700
C137        C  0.23786740  0.38810441  0.31806029    -0.29000
N138        N  0.25516634  0.39537911  0.28896596     0.16000
H139        H  0.24601815  0.39032443  0.34520225     0.18600
C140        C  0.23697389  0.38726711  0.25925975    -0.29000
H141        H  0.24425306  0.38867038  0.23220600     0.18600
H142        H  0.13560084  0.27365016  0.22570659     0.18600
H143        H  0.13953017  0.38996147  0.34542437     0.18700
H144        H  0.13702739  0.27527803  0.33883872     0.18600
C145        C  0.17587708  0.35699585  0.96328752    -0.16000
C146        C  0.17562481  0.35521385  0.43077327     0.08000
C147        C  0.17600591  0.35619922  0.39360241     0.09900
C148        C  0.17626856  0.35697387  0.36179345    -0.16900
C149        C  0.17507941  0.35592456  0.21262206    -0.16000
C150        C  0.17593787  0.35701849  0.18094125     0.08000
C151        C  0.17745872  0.35896683  0.14403784     0.09900
C152        C  0.17836674  0.36010194  0.11236059    -0.16900
C153        C  0.07035781  0.12404130  0.28361015    -0.16000
C154        C  0.08359234  0.15589020  0.28141777     0.08000
C155        C  0.09945943  0.19332569  0.27977131     0.09900
C156        C  0.11357411  0.22552581  0.27988300    -0.16900
C157        C  0.28649792  0.40757454  0.28934278    -0.16000
C158        C  0.31365400  0.41888495  0.28963983     0.08000
C159        C  0.34593626  0.43426258  0.29024489     0.09900
C160        C  0.37386809  0.44985793  0.29094915    -0.16900
C161        C  0.06880622  0.44667064  0.28596738    -0.16000
C162        C  0.08139645  0.43157383  0.28798978     0.08000
C163        C  0.09900926  0.41724259  0.28934209     0.09900
C164        C  0.11540717  0.40674453  0.28964734    -0.16900
C165        C  0.06627057  0.12568577  0.03419477    -0.16000
C166        C  0.08382950  0.15792805  0.03341040     0.08000
C167        C  0.10410887  0.19573957  0.03289271     0.09900
C168        C  0.12073780  0.22811758  0.03306598    -0.16900
C169        C  0.28723866  0.41049119  0.03871135    -0.16000
C170        C  0.31402834  0.42056806  0.03794308     0.08000
C171        C  0.34598716  0.43476065  0.03710068     0.09900
C172        C  0.37378310  0.44963259  0.03716592    -0.16900
C173        C  0.06540418  0.44231793  0.03613125    -0.16000
C174        C  0.07735245  0.42647645  0.03797860     0.08000
C175        C  0.09431386  0.41131963  0.03932838     0.09900
C176        C  0.11038736  0.40038549  0.03973201    -0.16900
C177        C  0.00266705  0.01051689  0.42154916    -0.14000
C178        C  0.02719546  0.02332288  0.40091464    -0.29100
H179        H  0.97986942  0.99938690  0.40911109     0.15100
H180        H  0.04996683  0.03433409  0.41335671     0.15600
C181        C  0.02274244  0.01309335  0.17180892    -0.14000
C182        C  0.00948079  0.02374900  0.15030817    -0.29100
H183        H  0.03619602  0.00420837  0.16004498     0.15100
H184        H  0.03719891  0.52116038  0.15700306     0.15600
C185        C  0.45993172  0.08913996  0.27357402    -0.16000
C186        C  0.44703796  0.10390488  0.27109938     0.08000
C187        C  0.42940685  0.11831184  0.26977761     0.09900
C188        C  0.41340255  0.12940832  0.27031410    -0.16900
C189        C  0.41120305  0.31011523  0.28601135    -0.16000
C190        C  0.42560445  0.34233896  0.28582583     0.08000
C191        C  0.44240447  0.37990748  0.28414335     0.09900
C192        C  0.45670337  0.41198952  0.28258368    -0.16900
C193        C  0.15690986  0.09021077  0.29328328    -0.16000
C194        C  0.18467073  0.10541803  0.29214831     0.08000
C195        C  0.21646375  0.11972410  0.28900619     0.09900
C196        C  0.24310918  0.12983705  0.28618081    -0.16900
C197        C  0.44215813  0.08424242  0.53913444    -0.16000
C198        C  0.42978492  0.09957879  0.53828238     0.08000
C199        C  0.41310697  0.11485903  0.53599976     0.09900
C200        C  0.39792605  0.12676162  0.53404561    -0.16900
C201        C  0.45415909  0.41065796  0.03151845    -0.16000
C202        C  0.43856651  0.37860223  0.03380986     0.08000
C203        C  0.41979173  0.34110261  0.03655613     0.09900
C204        C  0.40355816  0.30884747  0.03717621    -0.16900
C205        C  0.22972512  0.12970481  0.01794164    -0.16000
C206        C  0.20272536  0.11921401  0.01647847     0.08000
C207        C  0.17053720  0.10457185  0.01691139     0.09900
C208        C  0.14278570  0.08946487  0.01935957    -0.16900
C209        C  0.34351733  0.17864545  0.45444814    -0.16000
C210        C  0.34763986  0.17901095  0.42300879     0.08000
C211        C  0.35313740  0.18002512  0.38637082     0.09900
C212        C  0.35605607  0.18064563  0.35467583    -0.16900
C213        C  0.33752314  0.17795433  0.10432255    -0.16000
C214        C  0.33970149  0.17801271  0.13620967     0.08000
C215        C  0.34389243  0.17797169  0.17324296     0.09900
C216        C  0.34746751  0.17798588  0.20488657    -0.16900
C217        C  0.34039144  0.18184799  0.56539029     0.32500
C218        C  0.34128561  0.17775376  0.99338412     0.32500
C219        C  0.30853402  0.16215514  0.54546455    -0.03700
C220        C  0.35900189  0.21849946  0.54924054    -0.04500
C221        C  0.35453993  0.16335095  0.54881743    -0.04400
C222        C  0.30831038  0.15840128  0.00729895    -0.03700
C223        C  0.35836398  0.21480839  0.01350896    -0.04500
C224        C  0.35470180  0.16015972  0.01181786    -0.04400
C225        C  0.27957628  0.14754649  0.99347284    -0.29800
N226        N  0.26071717  0.14059933  0.02094785     0.16700
C227        C  0.27866216  0.14936668  0.55430701    -0.29800
H228        H  0.27063550  0.14848845  0.58089089     0.18700
C229        C  0.37583558  0.24996966  0.00484198    -0.28700
N230        N  0.38813011  0.27417509  0.53249421     0.15500
C231        C  0.37691936  0.25431560  0.56128925    -0.28700
C232        C  0.37292323  0.14863949  0.00232007    -0.29000
N233        N  0.38218560  0.14170142  0.03244530     0.16000
H234        H  0.38029484  0.14729430  0.97587147     0.18600
C235        C  0.37013872  0.14975229  0.56100360    -0.29000
H236        H  0.37488952  0.14797230  0.58852574     0.18600
H237        H  0.38164422  0.26512788  0.58873215     0.18600
H238        H  0.27339537  0.14676951  0.96579385     0.18700
H239        H  0.38171315  0.25948127  0.97838368     0.18600
C240        C  0.35519084  0.18142306  0.81561603     0.32500
C241        C  0.35026990  0.17885725  0.74350400     0.32500
C242        C  0.32233284  0.16383717  0.79946305    -0.03700
C243        C  0.37379034  0.21801517  0.79934669    -0.04500
C244        C  0.36617956  0.16081208  0.79538804    -0.04400
C245        C  0.31972688  0.16248372  0.76253346    -0.03700
C246        C  0.37120791  0.21658775  0.76235945    -0.04500
C247        C  0.36370666  0.15950167  0.75825843    -0.04400
C248        C  0.28958081  0.15027714  0.75349591    -0.29800
N249        N  0.27422811  0.14429292  0.78401300     0.16700
C250        C  0.29385001  0.15253586  0.81223474    -0.29800
H251        H  0.28816290  0.15187345  0.83990434     0.18700
C252        C  0.38792397  0.25145259  0.75257476    -0.28700
N253        N  0.40053045  0.27377565  0.78257190     0.15500
C254        C  0.39212995  0.25387290  0.81135129    -0.28700
C255        C  0.37941996  0.14573076  0.74495409    -0.29000
N256        N  0.39104107  0.13864617  0.77289865     0.16000
H257        H  0.38359739  0.14299341  0.71725971     0.18600
C258        C  0.38336109  0.14793297  0.80373085    -0.29000
H259        H  0.39120219  0.14727322  0.83013093     0.18600
H260        H  0.39824409  0.26466766  0.83881027     0.18600
H261        H  0.27993159  0.14748500  0.72704070     0.18700
H262        H  0.39011938  0.25999143  0.72582114     0.18600
C263        C  0.11045701  0.07006683  0.52939284     0.78900
Tb264      Tb  0.47078439  0.01491225  0.53482222     1.80700
O265        O  0.09810784  0.06065748  0.55890853    -0.49100
O266        O  0.04864178  0.47937132  0.55807510    -0.56500
C267        C  0.04024203  0.08598831  0.53383229     0.94700
O268        O  0.46778672  0.06023217  0.56315055    -0.56100
Tb269      Tb  0.04606125  0.02026855  0.53652113     1.78100
O270        O  0.42498193  0.47456972  0.51488966    -0.56600
O271        O  0.99752595  0.46881933  0.51071856    -0.75400
O272        O  0.04958594  0.07248676  0.55401280    -0.74700
O273        O  0.03013601  0.01952840  0.97617276    -0.60000
C274        C  0.47546429  0.45251355  0.53159339     0.94300
O275        O  0.49144905  0.02785481  0.59341317    -0.71900
C276        C  0.40662377  0.96189375  0.53035836     0.77800
C277        C  0.06089661  0.47258092  0.53323320     0.78800
O278        O  0.09091050  0.05646433  0.50338449    -0.57100
O279        O  0.06438848  0.48882445  0.50568580    -0.49100
O280        O  0.98313903  0.00959962  0.97675214    -0.75200
O281        O  0.02772400  0.01670275  0.59484918    -0.59200
C282        C  0.00956286  0.02296917  0.61027712     0.92600
C283        C  0.00591422  0.01383346  0.96027805     0.93800
C284        C  0.46038162  0.07025973  0.03700607     0.78100
O285        O  0.42130650  0.98048803  0.55859137    -0.48500
O286        O  0.45243977  0.04725541  0.01147082    -0.49600
O287        O  0.46903875  0.46932854  0.55308005    -0.62500
O288        O  0.01558088  0.06624638  0.51439888    -0.63600
C289        C  0.12400731  0.07047776  0.79002133     0.78900
Tb290      Tb  0.48529254  0.01719653  0.78500186     1.80700
O291        O  0.10701329  0.06639231  0.81543923    -0.49100
O292        O  0.04879594  0.47909308  0.80785382    -0.56500
C293        C  0.05444539  0.08712230  0.78662434     0.94700
O294        O  0.46618456  0.05042609  0.80527442    -0.56100
Tb295      Tb  0.05949816  0.02023410  0.78550203     1.78100
O296        O  0.42512324  0.47299109  0.76652232    -0.56600
O297        O  0.99979031  0.46891172  0.75957409    -0.75400
O298        O  0.06269209  0.07060891  0.76750524    -0.74700
O299        O  0.04037342  0.01128710  0.72683963    -0.60000
C300        C  0.47764679  0.45177711  0.78021146     0.94300
O301        O  0.00063692  0.01500040  0.84409961    -0.71900
C302        C  0.42099087  0.96635410  0.79222207     0.77800
C303        C  0.06196355  0.47314252  0.78349576     0.78800
O304        O  0.10913542  0.05077251  0.76238692    -0.57100
O305        O  0.06645056  0.49026714  0.75633426    -0.49100
O306        O  0.00338711  0.02136305  0.72620641    -0.75200
O307        O  0.04881784  0.02807044  0.84404484    -0.59200
C308        C  0.02520518  0.02180197  0.86022600     0.92600
C309        C  0.02207131  0.01612402  0.71040399     0.93800
C310        C  0.46857170  0.06487893  0.77687240     0.78100
O311        O  0.44085019  0.97813500  0.81774142    -0.48500
O312        O  0.48042606  0.05699487  0.75256465    -0.49600
O313        O  0.46988646  0.46773063  0.80109709    -0.62300
O314        O  0.03182330  0.07038924  0.80667972    -0.63600
C315        C  0.17654360  0.35659022  0.50146786     0.32500
C316        C  0.17843886  0.35967941  0.57352063     0.32500
C317        C  0.16296403  0.37524460  0.51946100    -0.03700
C318        C  0.15880141  0.32013786  0.51787589    -0.04500
C319        C  0.20910935  0.37648219  0.51947801    -0.04400
C320        C  0.16388415  0.37684501  0.55653189    -0.03700
C321        C  0.15979395  0.32177363  0.55489736    -0.04500
C322        C  0.21014072  0.37804566  0.55653948    -0.04400
C323        C  0.14765644  0.39062380  0.56766500    -0.29800
N324        N  0.13718620  0.39737273  0.53835452     0.16700
C325        C  0.14625434  0.38805169  0.50877531    -0.29800
H326        H  0.14005669  0.38912878  0.48164278     0.18700
C327        C  0.14194301  0.28695682  0.56491627    -0.28700
N328        N  0.13030857  0.26456647  0.53490846     0.15500
C329        C  0.14034472  0.28430780  0.50599702    -0.28700
C330        C  0.24045240  0.39266603  0.56768322    -0.29000
N331        N  0.25750613  0.39997406  0.53836578     0.16000
H332        H  0.24912066  0.39602679  0.59481939     0.18600
C333        C  0.23874087  0.39022498  0.50879639    -0.29000
H334        H  0.24580484  0.39132845  0.48167695     0.18600
H335        H  0.13426821  0.27340071  0.47857140     0.18600
H336        H  0.14274022  0.39410166  0.59482854     0.18700
H337        H  0.13735006  0.27851240  0.59183727     0.18600
C338        C  0.17808221  0.35773298  0.75205445     0.32500
C339        C  0.17887227  0.35971840  0.82401587     0.32500
C340        C  0.16422780  0.37616004  0.77004709    -0.03700
C341        C  0.16002839  0.32093292  0.76790237    -0.04500
C342        C  0.21042104  0.37722314  0.77072062    -0.04400
C343        C  0.16463814  0.37715501  0.80705954    -0.03700
C344        C  0.16050293  0.32207344  0.80490746    -0.04500
C345        C  0.21086029  0.37828205  0.80778055    -0.04400
C346        C  0.14819438  0.39060432  0.81830876    -0.29800
N347        N  0.13800341  0.39776768  0.78909662     0.16700
C348        C  0.14748889  0.38901297  0.75947533    -0.29800
H349        H  0.14153727  0.39047279  0.73236569     0.18700
C350        C  0.14388423  0.28716403  0.81454216    -0.28700
N351        N  0.13337812  0.26508769  0.78434714     0.15500
C352        C  0.14301514  0.28518223  0.75565045    -0.28700
C353        C  0.24054017  0.39065853  0.81949694    -0.29000
N354        N  0.25785705  0.39720063  0.79055992     0.16000
H355        H  0.24848918  0.39288961  0.84674406     0.18600
C356        C  0.23978672  0.38884712  0.76066003    -0.29000
H357        H  0.24702933  0.38937122  0.73371708     0.18600
H358        H  0.13822113  0.27458159  0.72813308     0.18600
H359        H  0.14292097  0.39354000  0.84545903     0.18700
H360        H  0.13993205  0.27843628  0.84136254     0.18600
C361        C  0.17565129  0.35510927  0.46264077    -0.16000
C362        C  0.17643860  0.35781477  0.93152500     0.08000
C363        C  0.17782012  0.35935098  0.89448867     0.09900
C364        C  0.17881250  0.36017058  0.86273302    -0.16900
C365        C  0.17790068  0.35705796  0.71321340    -0.16000
C366        C  0.17840640  0.35799527  0.68138294     0.08000
C367        C  0.17905567  0.35971822  0.64422721     0.09900
C368        C  0.17915925  0.36057033  0.61238558    -0.16900
C369        C  0.07075590  0.12530299  0.78524009    -0.16000
C370        C  0.08455366  0.15741191  0.78412140     0.08000
C371        C  0.10119573  0.19511542  0.78324960     0.09900
C372        C  0.11591269  0.22743142  0.78328088    -0.16900
C373        C  0.28904577  0.40883859  0.79124795    -0.16000
C374        C  0.31610760  0.41977076  0.79154383     0.08000
C375        C  0.34830785  0.43482664  0.79167063     0.09900
C376        C  0.37619993  0.45030511  0.79176909    -0.16900
C377        C  0.07293873  0.45096075  0.78693145    -0.16000
C378        C  0.08559151  0.43587378  0.78860298     0.08000
C379        C  0.10300576  0.42120213  0.78937265     0.09900
C380        C  0.11901518  0.41013791  0.78937520    -0.16900
C381        C  0.05800594  0.12433100  0.53298811    -0.16000
C382        C  0.07377177  0.15666238  0.53288770     0.08000
C383        C  0.09319619  0.19455315  0.53332962     0.09900
C384        C  0.11030072  0.22692527  0.53397570    -0.16900
C385        C  0.28881319  0.41215013  0.53838644    -0.16000
C386        C  0.31575402  0.42268803  0.53823590     0.08000
C387        C  0.34771454  0.43669139  0.53826454     0.09900
C388        C  0.37551811  0.45148240  0.53878369    -0.16900
C389        C  0.07205645  0.45054605  0.53646938    -0.16000
C390        C  0.08484631  0.43558708  0.53782863     0.08000
C391        C  0.10232335  0.42097955  0.53839196     0.09900
C392        C  0.11829790  0.40987070  0.53848194    -0.16900
C393        C  0.00340509  0.01252150  0.92068321    -0.14000
C394        C  0.02731366  0.02229543  0.89975757    -0.29100
H395        H  0.98127312  0.00433647  0.90848182     0.15100
H396        H  0.04947392  0.03064708  0.91202296     0.15600
C397        C  0.02355070  0.01569725  0.67093225    -0.14000
C398        C  0.00837421  0.02416204  0.64978587    -0.29100
H399        H  0.03813587  0.00853632  0.65892173     0.15100
H400        H  0.04235452  0.52833643  0.65747219     0.15600
C401        C  0.45691147  0.08631622  0.77242844    -0.16000
C402        C  0.44394307  0.10105989  0.77049560     0.08000
C403        C  0.42630966  0.11552256  0.76983548     0.09900
C404        C  0.41016267  0.12644694  0.77063123    -0.16900
C405        C  0.41768986  0.31143193  0.78345043    -0.16000
C406        C  0.43187871  0.34369728  0.78307919     0.08000
C407        C  0.44787310  0.38132715  0.78166999     0.09900
C408        C  0.46135866  0.41343296  0.78055251    -0.16900
C409        C  0.15729552  0.09350505  0.79243529    -0.16000
C410        C  0.18505098  0.10888421  0.79175088     0.08000
C411        C  0.21679893  0.12315038  0.78903046     0.09900
C412        C  0.24343523  0.13331206  0.78641530    -0.16900
C413        C  0.45058362  0.09370262  0.03825052    -0.16000
C414        C  0.43811863  0.10896206  0.03756772     0.08000
C415        C  0.41998114  0.12248753  0.03578735     0.09900
C416        C  0.40277130  0.13174244  0.03416403    -0.16900
C417        C  0.45741150  0.41410084  0.53119600    -0.16000
C418        C  0.44199325  0.38184813  0.53181823     0.08000
C419        C  0.42355028  0.34412079  0.53292746     0.09900
C420        C  0.40732947  0.31181513  0.53328273    -0.16900
C421        C  0.23003985  0.12912644  0.52214838    -0.16000
C422        C  0.20318149  0.11911237  0.52211478     0.08000
C423        C  0.17132654  0.10571614  0.52358222     0.09900
C424        C  0.14368797  0.09154167  0.52573475    -0.16900
C425        C  0.34415951  0.17848009  0.95463373    -0.16000
C426        C  0.34848912  0.17989933  0.92318418     0.08000
C427        C  0.35378559  0.18163528  0.88641584     0.09900
C428        C  0.35647482  0.18237308  0.85464534    -0.16900
C429        C  0.34028404  0.18260063  0.60437989    -0.16000
C430        C  0.34166515  0.18145585  0.63617634     0.08000
C431        C  0.34449251  0.17940734  0.67307721     0.09900
C432        C  0.34730890  0.17829518  0.70465991    -0.16900
C433        C  0.33826133  0.67902978  0.07004550     0.32500
C434        C  0.33810051  0.67693762  0.49810455     0.32500
C435        C  0.30612315  0.66104746  0.05146321    -0.03700
C436        C  0.35722473  0.71617739  0.05505076    -0.04500
C437        C  0.35110919  0.65988307  0.05134166    -0.04400
C438        C  0.30752280  0.66345857  0.51601718    -0.03700
C439        C  0.36069187  0.71435148  0.51677312    -0.04500
C440        C  0.34831218  0.65471971  0.51364861    -0.04400
C441        C  0.27789055  0.65219489  0.50575751    -0.29800
N442        N  0.26179781  0.64674109  0.53557997     0.16700
C443        C  0.27714962  0.65056573  0.06182722    -0.29800
H444        H  0.26998664  0.64960541  0.08888057     0.18700
C445        C  0.37903073  0.74914679  0.50691300    -0.28700
N446        N  0.38622305  0.77242568  0.03998492     0.15500
C447        C  0.37555763  0.75165512  0.06815479    -0.28700
C448        C  0.36776955  0.64561727  0.50173436    -0.29000
N449        N  0.38020717  0.64062070  0.53031060     0.16000
H450        H  0.37445505  0.64568180  0.47459150     0.18600
C451        C  0.36916485  0.64868290  0.06156783    -0.29000
H452        H  0.37581924  0.64790603  0.08858036     0.18600
H453        H  0.38087026  0.76162884  0.09587590     0.18600
H454        H  0.26890200  0.64900684  0.47882558     0.18700
H455        H  0.38216011  0.75781090  0.48010817     0.18600
C456        C  0.33954450  0.67996205  0.32014837     0.32500
C457        C  0.33881236  0.67748546  0.24832139     0.32500
C458        C  0.30806546  0.66549588  0.30163206    -0.03700
C459        C  0.36144489  0.71623140  0.30423491    -0.04500
C460        C  0.34871736  0.65643435  0.30248175    -0.04400
C461        C  0.30761937  0.66416842  0.26468026    -0.03700
C462        C  0.36108598  0.71490269  0.26725741    -0.04500
C463        C  0.34830449  0.65512996  0.26517792    -0.04400
C464        C  0.27813875  0.65256063  0.25291398    -0.29800
N465        N  0.26104016  0.64702833  0.28188412     0.16700
C466        C  0.27897432  0.65483040  0.31176195    -0.29800
H467        H  0.27155005  0.65346591  0.33873912     0.18700
C468        C  0.38116184  0.74960561  0.25758946    -0.28700
N469        N  0.39345992  0.77163607  0.28779258     0.15500
C470        C  0.38167259  0.75178589  0.31649484    -0.28700
C471        C  0.36790758  0.64577446  0.25466779    -0.29000
N472        N  0.37936414  0.64056801  0.28403166     0.16000
H473        H  0.37531356  0.64571550  0.22792297     0.18600
C474        C  0.36868284  0.64795203  0.31330345    -0.29000
H475        H  0.37681031  0.64989846  0.34039940     0.18600
H476        H  0.38703146  0.76249445  0.34399544     0.18600
H477        H  0.26991432  0.64904043  0.22553725     0.18700
H478        H  0.38607042  0.75829677  0.23076905     0.18600
C479        C  0.10753256  0.56563088  0.03075406     0.78900
Tb480      Tb  0.47205038  0.51995353  0.04043671     1.80700
O481        O  0.09096907  0.56504057  0.05517620    -0.49100
O482        O  0.05561677  0.98298511  0.06835054    -0.56500
C483        C  0.04318813  0.58791298  0.03587879     0.94700
O484        O  0.45549845  0.55449517  0.06451504    -0.56100
Tb485      Tb  0.04275506  0.51672676  0.02843358     1.78100
O486        O  0.42620614  0.97110370  0.00842426    -0.56600
O487        O  0.99807152  0.96523391  0.01675578    -0.75400
O488        O  0.04933771  0.57019493  0.01531454    -0.74700
O489        O  0.02693157  0.52006572  0.47182771    -0.60000
C490        C  0.47576792  0.95061212  0.03743100     0.94300
O491        O  0.49060623  0.52182636  0.09749503    -0.71900
C492        C  0.40722618  0.47158100  0.03871022     0.77800
C493        C  0.06197712  0.97022052  0.04222986     0.78800
O494        O  0.09209524  0.54273769  0.00504506    -0.57100
O495        O  0.05902823  0.97997724  0.01283705    -0.49100
O496        O  0.98473560  0.51992135  0.48062415    -0.75200
O497        O  0.03122138  0.51883964  0.08879730    -0.59200
C498        C  0.01267671  0.52051496  0.10903083     0.92600
C499        C  0.00402845  0.51980405  0.46038487     0.93800
C500        C  0.46091132  0.57274518  0.53562515     0.78100
O501        O  0.42318293  0.49231446  0.06552298    -0.48500
O502        O  0.47236913  0.56478125  0.51081397    -0.49600
O503        O  0.46928041  0.96918003  0.05596742    -0.62500
O504        O  0.02117580  0.57255387  0.05696740    -0.63600
C505        C  0.10898740  0.56956689  0.28028099     0.78900
Tb506      Tb  0.47232149  0.52028061  0.29184573     1.80700
O507        O  0.09236439  0.56779583  0.30525324    -0.49100
O508        O  0.07818778  0.98791099  0.30858763    -0.56500
C509        C  0.04319925  0.58900628  0.28772113     0.94700
O510        O  0.45781534  0.55667494  0.31639306    -0.56100
Tb511      Tb  0.04423805  0.51926476  0.27820673     1.78100
O512        O  0.43279089  0.98371050  0.26494357    -0.56600
O513        O  0.01250385  0.96831615  0.30676706    -0.75400
O514        O  0.04867934  0.57155577  0.26586361    -0.74700
O515        O  0.02497878  0.51819244  0.22177450    -0.60000
C516        C  0.48793560  0.94983263  0.28702521     0.94300
O517        O  0.99171555  0.52118579  0.34790463    -0.71900
C518        C  0.40737082  0.47204185  0.29185984     0.77800
C519        C  0.07062954  0.96680073  0.28135689     0.78800
O520        O  0.09357030  0.54738112  0.25407655    -0.57100
O521        O  0.05616095  0.97044819  0.25724793    -0.49100
O522        O  0.98337682  0.51914921  0.23113408    -0.75200
O523        O  0.03376695  0.52109263  0.33889216    -0.59200
C524        C  0.01455280  0.52124711  0.35920394     0.92600
C525        C  0.00241068  0.51878774  0.21061435     0.93800
C526        C  0.45936988  0.57123980  0.28822300     0.78100
O527        O  0.42384490  0.49313730  0.31827113    -0.48500
O528        O  0.46854980  0.56177201  0.26206311    -0.49600
O529        O  0.48013411  0.96467281  0.26657829    -0.62300
O530        O  0.02118267  0.57328837  0.30876319    -0.63600
C531        C  0.17888971  0.85871793  0.00333946     0.32500
C532        C  0.18228674  0.86060311  0.07533426     0.32500
C533        C  0.17094031  0.88265651  0.02303047    -0.03700
C534        C  0.15730755  0.82232064  0.01940971    -0.04500
C535        C  0.21077050  0.87247782  0.02013433    -0.04400
C536        C  0.17269229  0.88362191  0.06031062    -0.03700
C537        C  0.15906131  0.82341912  0.05642197    -0.04500
C538        C  0.21252567  0.87342087  0.05702395    -0.04400
C539        C  0.15517757  0.89523736  0.07295601    -0.29800
N540        N  0.14364501  0.90201873  0.04479065     0.16700
C541        C  0.15236480  0.89366506  0.01429671    -0.29800
H542        H  0.14375006  0.89283825  0.98781034     0.18700
C543        C  0.14083744  0.78850786  0.06605248    -0.28700
N544        N  0.12820073  0.76648443  0.03588307     0.15500
C545        C  0.13807223  0.78659103  0.00720023    -0.28700
C546        C  0.24212097  0.88431215  0.06704607    -0.29000
N547        N  0.25806354  0.88991805  0.03708094     0.16000
H548        H  0.25124112  0.88743332  0.09389263     0.18600
C549        C  0.23930960  0.88282943  0.00827028    -0.29000
H550        H  0.24584263  0.88458087  0.98084936     0.18600
H551        H  0.13275001  0.77594600  0.97968180     0.18600
H552        H  0.14915280  0.89583524  0.10029502     0.18700
H553        H  0.13807256  0.77967882  0.09275226     0.18600
C554        C  0.19136240  0.85852816  0.25287595     0.32500
C555        C  0.18891385  0.86175099  0.32471571     0.32500
C556        C  0.18090259  0.88144384  0.26825222    -0.03700
C557        C  0.16920391  0.82233790  0.26891776    -0.04500
C558        C  0.22221568  0.87407601  0.27350632    -0.04400
C559        C  0.17951988  0.88309134  0.30540519    -0.03700
C560        C  0.16799284  0.82409361  0.30583059    -0.04500
C561        C  0.22103474  0.87569501  0.31046975    -0.04400
C562        C  0.15869369  0.89138558  0.31301150    -0.29800
N563        N  0.14847746  0.89580065  0.28207733     0.16700
C564        C  0.16110896  0.88897827  0.25461538    -0.29800
H565        H  0.15438474  0.88667955  0.22680519     0.18700
C566        C  0.14783560  0.78951626  0.31567066    -0.28700
N567        N  0.13696251  0.76709459  0.28572465     0.15500
C568        C  0.14972087  0.78658326  0.25693668    -0.28700
C569        C  0.25032687  0.88861841  0.32424598    -0.29000
N570        N  0.26887361  0.89482957  0.29657412     0.16000
H571        H  0.25751395  0.89273221  0.35212419     0.18600
C572        C  0.25207163  0.88609902  0.26550664    -0.29000
H573        H  0.26083379  0.88788659  0.23919166     0.18600
H574        H  0.14548947  0.77552472  0.22962443     0.18600
H575        H  0.14973120  0.89133518  0.33881791     0.18700
H576        H  0.14185831  0.78117299  0.34250480     0.18600
C577        C  0.17828195  0.85818078  0.96434170    -0.16000
C578        C  0.17970402  0.86272753  0.43237072     0.08000
C579        C  0.18375766  0.86324732  0.39530207     0.09900
C580        C  0.18695257  0.86308863  0.36361435    -0.16900
C581        C  0.19220708  0.85742133  0.21405801    -0.16000
C582        C  0.19074622  0.85837094  0.18232719     0.08000
C583        C  0.18753546  0.86018011  0.14559996     0.09900
C584        C  0.18467959  0.86109724  0.11407961    -0.16900
C585        C  0.06243018  0.62746132  0.28831145    -0.16000
C586        C  0.07922418  0.65968782  0.28742528     0.08000
C587        C  0.09926195  0.69731822  0.28582865     0.09900
C588        C  0.11660274  0.72954077  0.28514890    -0.16900
C589        C  0.30042344  0.90794511  0.29929943    -0.16000
C590        C  0.32768777  0.91965616  0.30037065     0.08000
C591        C  0.35987678  0.93462433  0.29980485     0.09900
C592        C  0.38757158  0.94925694  0.29783666    -0.16900
C593        C  0.07967982  0.94271595  0.27763006    -0.16000
C594        C  0.09143259  0.92663662  0.27624727     0.08000
C595        C  0.10906505  0.91243372  0.27677917     0.09900
C596        C  0.12659712  0.90369184  0.27885340    -0.16900
C597        C  0.06165408  0.62633122  0.03525087    -0.16000
C598        C  0.07699249  0.65861549  0.03464324     0.08000
C599        C  0.09479843  0.69643876  0.03430637     0.09900
C600        C  0.11009162  0.72880156  0.03466232    -0.16900
C601        C  0.28916506  0.90163181  0.03592384    -0.16000
C602        C  0.31618952  0.91285927  0.03454427     0.08000
C603        C  0.34838055  0.92869507  0.03290723     0.09900
C604        C  0.37630394  0.94527279  0.03229849    -0.16900
C605        C  0.07391141  0.94900929  0.04560067    -0.16000
C606        C  0.08735763  0.93483901  0.04707085     0.08000
C607        C  0.10587330  0.92158647  0.04743629     0.09900
C608        C  0.12305202  0.91212309  0.04662400    -0.16900
C609        C  0.99937161  0.51959993  0.42160098    -0.14000
C610        C  0.01923894  0.52133878  0.39797251    -0.29100
H611        H  0.97918533  0.51836133  0.41232402     0.15100
H612        H  0.03943476  0.52258502  0.40723152     0.15600
C613        C  0.99782897  0.51935666  0.17183166    -0.14000
C614        C  0.01733585  0.52065500  0.14790694    -0.29100
H615        H  0.97792547  0.51880372  0.16279793     0.15100
H616        H  0.99621927  0.03286012  0.16216216     0.15600
C617        C  0.44922069  0.59424125  0.28575728    -0.16000
C618        C  0.43670386  0.60946386  0.28463354     0.08000
C619        C  0.41851918  0.62307434  0.28419357     0.09900
C620        C  0.40095963  0.63195722  0.28414975    -0.16900
C621        C  0.41411613  0.80919692  0.28895596    -0.16000
C622        C  0.43161655  0.84149409  0.28931831     0.08000
C623        C  0.45167299  0.87925212  0.28891726     0.09900
C624        C  0.46843518  0.91149689  0.28813849    -0.16900
C625        C  0.14249612  0.59303155  0.28193978    -0.16000
C626        C  0.17047638  0.60908352  0.28207421     0.08000
C627        C  0.20273280  0.62434891  0.28152681     0.09900
C628        C  0.22981166  0.63531190  0.28132178    -0.16900
C629        C  0.45087952  0.59570609  0.53192601    -0.16000
C630        C  0.43835770  0.61084357  0.52998562     0.08000
C631        C  0.42001064  0.62417450  0.52902235     0.09900
C632        C  0.40215998  0.63260509  0.52922280    -0.16900
C633        C  0.45759646  0.91242352  0.03995768    -0.16000
C634        C  0.44193955  0.88024548  0.04160182     0.08000
C635        C  0.42286474  0.84245930  0.04245693     0.09900
C636        C  0.40601219  0.81009304  0.04192742    -0.16900
C637        C  0.22839208  0.63285825  0.03190180    -0.16000
C638        C  0.20132474  0.62179480  0.03217856     0.08000
C639        C  0.16897076  0.60569040  0.03258689     0.09900
C640        C  0.14097199  0.58903737  0.03235288    -0.16900
C641        C  0.33679734  0.67640116  0.45937802    -0.16000
C642        C  0.33725427  0.67776945  0.42765369     0.08000
C643        C  0.33859526  0.67995479  0.39066182     0.09900
C644        C  0.33949020  0.68090239  0.35890239    -0.16900
C645        C  0.33864051  0.67902511  0.10878124    -0.16000
C646        C  0.33879412  0.67816272  0.14056898     0.08000
C647        C  0.33870673  0.67701215  0.17770496     0.09900
C648        C  0.33856156  0.67662907  0.20953903    -0.16900
C649        C  0.34118275  0.67946466  0.56988793     0.32500
C650        C  0.33775591  0.67868737  0.99815225     0.32500
C651        C  0.30914106  0.66476311  0.55296640    -0.03700
C652        C  0.36230692  0.71573131  0.55371767    -0.04500
C653        C  0.34988270  0.65603946  0.55096194    -0.04400
C654        C  0.30579414  0.66089538  0.01441661    -0.03700
C655        C  0.35693428  0.71589864  0.01809779    -0.04500
C656        C  0.35092498  0.65974557  0.01434492    -0.04400
C657        C  0.27653472  0.65034902  0.00305598    -0.29800
N658        N  0.25938850  0.64388284  0.03215284     0.16700
C659        C  0.28050138  0.65429608  0.56461509    -0.29800
H660        H  0.27396294  0.65307915  0.59198669     0.18700
C661        C  0.37506672  0.75106787  0.00931479    -0.28700
N662        N  0.39163141  0.77130285  0.53698546     0.15500
C663        C  0.38163245  0.75143905  0.56579868    -0.28700
C664        C  0.36897486  0.64852285  0.00283188    -0.29000
N665        N  0.37960424  0.64160178  0.03180920     0.16000
H666        H  0.37546890  0.64760315  0.97578837     0.18600
C667        C  0.37028076  0.64781473  0.56037591    -0.29000
H668        H  0.37929276  0.64993793  0.58703688     0.18600
H669        H  0.38716841  0.76223132  0.59327235     0.18600
H670        H  0.26878038  0.64918128  0.97599088     0.18700
H671        H  0.37992615  0.76047163  0.98276039     0.18600
C672        C  0.34198209  0.68091157  0.81989783     0.32500
C673        C  0.34126529  0.67972783  0.74798783     0.32500
C674        C  0.30994855  0.66355751  0.80134026    -0.03700
C675        C  0.36150739  0.71777865  0.80444787    -0.04500
C676        C  0.35400276  0.66066026  0.80148813    -0.04400
C677        C  0.30954993  0.66297342  0.76432520    -0.03700
C678        C  0.36109144  0.71707379  0.76747610    -0.04500
C679        C  0.35368444  0.66013228  0.76441062    -0.04400
C680        C  0.27995373  0.65081127  0.75268333    -0.29800
N681        N  0.26268117  0.64392614  0.78170333     0.16700
C682        C  0.28061396  0.65165932  0.81153287    -0.29800
H683        H  0.27319174  0.65018203  0.83852605     0.18700
C684        C  0.37973224  0.75203379  0.75826773    -0.28700
N685        N  0.39132491  0.77364358  0.78873316     0.15500
C686        C  0.38047142  0.75330108  0.81717182    -0.28700
C687        C  0.37184219  0.64904892  0.75304464    -0.29000
N688        N  0.38259550  0.64239725  0.78208268     0.16000
H689        H  0.37851829  0.64831281  0.72605338     0.18600
C690        C  0.37225465  0.64972293  0.81180550    -0.29000
H691        H  0.37928097  0.64954652  0.83883238     0.18600
H692        H  0.38620811  0.76358728  0.84479564     0.18600
H693        H  0.27193371  0.64857894  0.72547120     0.18700
H694        H  0.38477394  0.76112412  0.73159623     0.18600
C695        C  0.11053001  0.57187437  0.52988041     0.78900
Tb696      Tb  0.47383447  0.52197257  0.54123323     1.80700
O697        O  0.09402326  0.57076401  0.55462481    -0.49100
O698        O  0.05352677  0.98421770  0.57197544    -0.56500
C699        C  0.04366006  0.59114577  0.53722149     0.94700
O700        O  0.45706942  0.55679563  0.56351244    -0.56100
Tb701      Tb  0.04597996  0.52190642  0.52840344     1.78100
O702        O  0.42369557  0.96848642  0.50436446    -0.56600
O703        O  0.99996445  0.96560153  0.51635042    -0.75400
O704        O  0.05027956  0.57427743  0.51605530    -0.74700
O705        O  0.02476790  0.51680427  0.97183676    -0.60000
C706        C  0.47691542  0.94943866  0.53590579     0.94300
O707        O  0.49292321  0.52341931  0.59784344    -0.71900
C708        C  0.40897969  0.47353390  0.54022634     0.77800
C709        C  0.06350946  0.97375349  0.54771572     0.78800
O710        O  0.09508962  0.54941028  0.50386559    -0.57100
O711        O  0.06360112  0.98498259  0.51794297    -0.49100
O712        O  0.98376273  0.51916334  0.97996685    -0.75200
O713        O  0.03564907  0.52462617  0.58904162    -0.59200
C714        C  0.01620292  0.52436490  0.60929895     0.92600
C715        C  0.00291132  0.51835657  0.96007296     0.93800
C716        C  0.45818587  0.57017843  0.03680455     0.78100
O717        O  0.42503840  0.49532868  0.56641786    -0.48500
O718        O  0.46899304  0.56226673  0.01119088    -0.49600
O719        O  0.46937126  0.96655191  0.55515729    -0.62500
O720        O  0.02226188  0.57493818  0.55887702    -0.63600
C721        C  0.11186666  0.57160989  0.78045175     0.78900
Tb722      Tb  0.47445728  0.52094460  0.79127094     1.80700
O723        O  0.09569471  0.56956806  0.80606363    -0.49100
O724        O  0.08010679  0.99073779  0.80762450    -0.56500
C725        C  0.04411592  0.59122563  0.78851558     0.94700
O726        O  0.45598210  0.55417636  0.81287111    -0.56100
Tb727      Tb  0.04722503  0.52257436  0.77871717     1.78100
O728        O  0.43297904  0.97835740  0.76302458    -0.56600
O729        O  0.01388934  0.96917098  0.80471915    -0.75400
O730        O  0.05145940  0.57508844  0.76738079    -0.74700
O731        O  0.02859894  0.52237977  0.72218017    -0.60000
C732        C  0.48923129  0.95078969  0.78517343     0.94300
O733        O  0.99290202  0.52166982  0.84765345    -0.71900
C734        C  0.40965521  0.47263831  0.79215827     0.77800
C735        C  0.07373796  0.97009500  0.78034793     0.78800
O736        O  0.09607259  0.55064911  0.75369957    -0.57100
O737        O  0.05946031  0.97333621  0.75562022    -0.49100
O738        O  0.98471167  0.51878695  0.73055555    -0.75200
O739        O  0.03599526  0.52363670  0.83939508    -0.59200
C740        C  0.01600727  0.52253132  0.85936937     0.92600
C741        C  0.00494421  0.52057115  0.71052258     0.93800
C742        C  0.46185263  0.57213717  0.78606926     0.78100
O743        O  0.42622254  0.49525100  0.81762588    -0.48500
O744        O  0.47507478  0.56586259  0.76203958    -0.49600
O745        O  0.48168617  0.96568001  0.76450083    -0.62300
O746        O  0.02252101  0.57426508  0.80983441    -0.63600
C747        C  0.17851935  0.86193665  0.50324325     0.32500
C748        C  0.18279623  0.86197837  0.57508551     0.32500
C749        C  0.17153187  0.88611708  0.52446288    -0.03700
C750        C  0.15662604  0.82522440  0.51862313    -0.04500
C751        C  0.21034165  0.87442851  0.51908889    -0.04400
C752        C  0.17378360  0.88611731  0.56168674    -0.03700
C753        C  0.15883334  0.82543427  0.55553519    -0.04500
C754        C  0.21254552  0.87438848  0.55585999    -0.04400
C755        C  0.15621888  0.89710316  0.57578169    -0.29800
N756        N  0.14418045  0.90448655  0.54870486     0.16700
C757        C  0.15251292  0.89697110  0.51738968    -0.29800
H758        H  0.14336509  0.89660240  0.49141065     0.18700
C759        C  0.14029518  0.79034868  0.56441946    -0.28700
N760        N  0.12696919  0.76902918  0.53395966     0.15500
C761        C  0.13677485  0.78974564  0.50572560    -0.28700
C762        C  0.24166336  0.88314925  0.56472768    -0.29000
N763        N  0.25687908  0.88850049  0.53421283     0.16000
H764        H  0.25081904  0.88465287  0.59110315     0.18600
C765        C  0.23814872  0.88330020  0.50616802    -0.29000
H766        H  0.24407018  0.88495870  0.47851399     0.18600
H767        H  0.13095171  0.77966953  0.47804687     0.18600
H768        H  0.15048665  0.89682322  0.60338145     0.18700
H769        H  0.13773308  0.78087262  0.59079231     0.18600
C770        C  0.19273860  0.86008971  0.75326264     0.32500
C771        C  0.19088398  0.86245644  0.82517841     0.32500
C772        C  0.18452152  0.88490949  0.76968878    -0.03700
C773        C  0.16911685  0.82407144  0.76889702    -0.04500
C774        C  0.22324762  0.87303389  0.77340803    -0.04400
C775        C  0.18337322  0.88606770  0.80697807    -0.03700
C776        C  0.16823132  0.82542550  0.80581258    -0.04500
C777        C  0.22236824  0.87422781  0.81040166    -0.04400
C778        C  0.16317937  0.89521910  0.81531653    -0.29800
N779        N  0.15328409  0.90078029  0.78484649     0.16700
C780        C  0.16534116  0.89371283  0.75692949    -0.29800
H781        H  0.15836832  0.89179232  0.72929464     0.18700
C782        C  0.14655700  0.79104703  0.81527204    -0.28700
N783        N  0.13441080  0.76906406  0.78505790     0.15500
C784        C  0.14792196  0.78868150  0.75649873    -0.28700
C785        C  0.25116799  0.88466585  0.82365553    -0.29000
N786        N  0.26915432  0.88976503  0.79566035     0.16000
H787        H  0.25840541  0.88797165  0.85141337     0.18600
C788        C  0.25244168  0.88278900  0.76489285    -0.29000
H789        H  0.26082181  0.88435142  0.73839474     0.18600
H790        H  0.14309930  0.77790344  0.72903969     0.18600
H791        H  0.15420096  0.89469087  0.84123818     0.18700
H792        H  0.14047163  0.78249115  0.84202910     0.18600
C793        C  0.17756895  0.86214530  0.46424413    -0.16000
C794        C  0.18077072  0.85929784  0.93256601     0.08000
C795        C  0.18541751  0.86146547  0.89567227     0.09900
C796        C  0.18903045  0.86285396  0.86407449    -0.16900
C797        C  0.19318213  0.85908950  0.71428633    -0.16000
C798        C  0.19152761  0.85944035  0.68241379     0.08000
C799        C  0.18834608  0.86056640  0.64541051     0.09900
C800        C  0.18552842  0.86152069  0.61381066    -0.16900
C801        C  0.06070051  0.62950983  0.78800432    -0.16000
C802        C  0.07579485  0.66168711  0.78647610     0.08000
C803        C  0.09505538  0.69937876  0.78463652     0.09900
C804        C  0.11283057  0.73160718  0.78410074    -0.16900
C805        C  0.30035203  0.90125471  0.79786737    -0.16000
C806        C  0.32750927  0.91231526  0.79867700     0.08000
C807        C  0.35986888  0.92778395  0.79806550     0.09900
C808        C  0.38776318  0.94362208  0.79619014    -0.16900
C809        C  0.08371707  0.94685607  0.77748870    -0.16000
C810        C  0.09608078  0.93146272  0.77751698     0.08000
C811        C  0.11408955  0.91780127  0.77959449     0.09900
C812        C  0.13161891  0.90907772  0.78213804    -0.16900
C813        C  0.06056011  0.62936707  0.53620359    -0.16000
C814        C  0.07501752  0.66144613  0.53450359     0.08000
C815        C  0.09252398  0.69904967  0.53259441     0.09900
C816        C  0.10816541  0.73135253  0.53229288    -0.16900
C817        C  0.28717153  0.89778147  0.53184690    -0.16000
C818        C  0.31362699  0.90712152  0.52968244     0.08000
C819        C  0.34547419  0.92146178  0.52786218     0.09900
C820        C  0.37335378  0.93759658  0.52784398    -0.16900
C821        C  0.07559414  0.95295648  0.55337805    -0.16000
C822        C  0.08886915  0.93858635  0.55525255     0.08000
C823        C  0.10695932  0.92472147  0.55461372     0.09900
C824        C  0.12379527  0.91480681  0.55230475    -0.16900
C825        C  0.99946033  0.51962532  0.92130479    -0.14000
C826        C  0.01985956  0.52181130  0.89818199    -0.29100
H827        H  0.97973489  0.51912007  0.91162568     0.15100
H828        H  0.03971915  0.52259161  0.90786968     0.15600
C829        C  0.00032473  0.52062069  0.67171076    -0.14000
C830        C  0.02119494  0.52495156  0.64813966    -0.29100
H831        H  0.97913646  0.51714647  0.66233473     0.15100
H832        H  0.99382670  0.03139490  0.66174211     0.15600
C833        C  0.45209916  0.59544959  0.78268660    -0.16000
C834        C  0.43949696  0.61058191  0.78149074     0.08000
C835        C  0.42108476  0.62391717  0.78131544     0.09900
C836        C  0.40360103  0.63291432  0.78162750    -0.16900
C837        C  0.41235092  0.81109192  0.79024476    -0.16000
C838        C  0.43062418  0.84320943  0.79030256     0.08000
C839        C  0.45175889  0.88064795  0.78887403     0.09900
C840        C  0.46922919  0.91266592  0.78709716    -0.16900
C841        C  0.14524451  0.59370807  0.78206326    -0.16000
C842        C  0.17298058  0.60841108  0.78215967     0.08000
C843        C  0.20482765  0.62231749  0.78155782     0.09900
C844        C  0.23164864  0.63258667  0.78128536    -0.16900
C845        C  0.44766559  0.59280449  0.03414939    -0.16000
C846        C  0.43512151  0.60796948  0.03263574     0.08000
C847        C  0.41722075  0.62191208  0.03162739     0.09900
C848        C  0.40018554  0.63151730  0.03141850    -0.16900
C849        C  0.45916664  0.91114305  0.53652021    -0.16000
C850        C  0.44403240  0.87893859  0.53730725     0.08000
C851        C  0.42603964  0.84122669  0.53803384     0.09900
C852        C  0.41030677  0.80892081  0.53796262    -0.16900
C853        C  0.23081813  0.63557382  0.53615231    -0.16000
C854        C  0.20389687  0.62502762  0.53575697     0.08000
C855        C  0.17180526  0.61022933  0.53400956     0.09900
C856        C  0.14393274  0.59466400  0.53204852    -0.16900
C857        C  0.33815072  0.67912592  0.95942002    -0.16000
C858        C  0.33958499  0.68019128  0.92766008     0.08000
C859        C  0.34137158  0.68133244  0.89053845     0.09900
C860        C  0.34219684  0.68160528  0.85869781    -0.16900
C861        C  0.34244667  0.68065835  0.60860553    -0.16000
C862        C  0.34250845  0.68069023  0.64042588     0.08000
C863        C  0.34183419  0.68008362  0.67753517     0.09900
C864        C  0.34125389  0.67960504  0.70931338    -0.16900
C865        C  0.83813387  0.17774362  0.06534904     0.32500
C866        C  0.84160931  0.17940041  0.49326343     0.32500
C867        C  0.80667508  0.15838518  0.04438235    -0.03700
C868        C  0.85683933  0.21492361  0.05040874    -0.04500
C869        C  0.85308459  0.16013128  0.04868537    -0.04400
C870        C  0.80906865  0.16094703  0.50833341    -0.03700
C871        C  0.85959592  0.21711525  0.51221335    -0.04500
C872        C  0.85519414  0.16208179  0.51187487    -0.04400
C873        C  0.77938980  0.14757026  0.49548210    -0.29800
N874        N  0.76120237  0.14051087  0.52374182     0.16700
C875        C  0.77699194  0.14754858  0.05207848    -0.29800
H876        H  0.76840205  0.14674389  0.07831440     0.18700
C877        C  0.87782973  0.25194136  0.50243864    -0.28700
N878        N  0.88487481  0.27118987  0.03546079     0.15500
C879        C  0.87351494  0.25037087  0.06356048    -0.28700
C880        C  0.87120207  0.14769581  0.50221342    -0.29000
N881        N  0.88001163  0.14029332  0.53238683     0.16000
H882        H  0.87691188  0.14399971  0.47553458     0.18600
C883        C  0.87043940  0.14869196  0.06093044    -0.29000
H884        H  0.87558420  0.14747259  0.08847724     0.18600
H885        H  0.87721789  0.26028254  0.09123365     0.18600
H886        H  0.77201004  0.14504966  0.46791830     0.18700
H887        H  0.88339228  0.26053329  0.47563136     0.18600
C888        C  0.85492793  0.18010313  0.31573811     0.32500
C889        C  0.85039281  0.17843640  0.24372446     0.32500
C890        C  0.82180396  0.15919663  0.29922762    -0.03700
C891        C  0.87075180  0.21683662  0.30021340    -0.04500
C892        C  0.86917317  0.16329500  0.29532639    -0.04400
C893        C  0.81937437  0.15832552  0.26225286    -0.03700
C894        C  0.86840201  0.21591016  0.26325316    -0.04500
C895        C  0.86689583  0.16242628  0.25826929    -0.04400
C896        C  0.78938503  0.14689318  0.25330858    -0.29800
N897        N  0.77384743  0.14044001  0.28373612     0.16700
C898        C  0.79336979  0.14829615  0.31191315    -0.29800
H899        H  0.78787664  0.14840574  0.33956886     0.18700
C900        C  0.88327811  0.25079710  0.25413936    -0.28700
N901        N  0.89450213  0.27257616  0.28454283     0.15500
C902        C  0.88707034  0.25237933  0.31291916    -0.28700
C903        C  0.88291114  0.14910808  0.24478737    -0.29000
N904        N  0.89461593  0.14201587  0.27264914     0.16000
H905        H  0.88653720  0.14579472  0.21701132     0.18600
C906        C  0.88647269  0.15056575  0.30355978    -0.29000
H907        H  0.89340498  0.14863899  0.32997096     0.18600
H908        H  0.89300260  0.26276987  0.34050742     0.18600
H909        H  0.78019285  0.14566910  0.22705273     0.18700
H910        H  0.88570278  0.25973033  0.22753206     0.18600
C911        C  0.60984531  0.06756444  0.02504983     0.78900
Tb912      Tb  0.97422320  0.01971152  0.03543554     1.80700
O913        O  0.59901579  0.05371604  0.05400415    -0.49100
O914        O  0.54400330  0.47327295  0.05800327    -0.56500
C915        C  0.54558195  0.08737543  0.03547895     0.94700
O916        O  0.97595170  0.06908610  0.06175327    -0.56100
Tb917      Tb  0.54585892  0.01852132  0.03548538     1.78100
O918        O  0.92331062  0.47356639  0.01303291    -0.56600
O919        O  0.49409223  0.46472884  0.00962998    -0.75400
O920        O  0.55236298  0.07170109  0.05604563    -0.74700
O921        O  0.53063212  0.02173569  0.47730831    -0.60000
C922        C  0.97209717  0.44894071  0.03063894     0.94300
O923        O  0.99400843  0.02969086  0.09410518    -0.71900
C924        C  0.90964340  0.96917744  0.03352215     0.77800
C925        C  0.55547031  0.46554522  0.03298741     0.78800
O926        O  0.58904394  0.05852983  0.00140282    -0.57100
O927        O  0.55938940  0.48193543  0.00541949    -0.49100
O928        O  0.48093503  0.00374214  0.47719132    -0.75200
O929        O  0.52840424  0.01564951  0.09476111    -0.59200
C930        C  0.51106901  0.02305952  0.11067511     0.92600
C931        C  0.50514703  0.01200922  0.46108341     0.93800
C932        C  0.95334087  0.06216935  0.53764071     0.78100
O933        O  0.92498526  0.99156673  0.05953108    -0.48500
O934        O  0.94837613  0.04170789  0.51074510    -0.49600
O935        O  0.96585551  0.46629003  0.05162182    -0.62500
O936        O  0.52094738  0.06955223  0.01574471    -0.63600
C937        C  0.62353881  0.06775236  0.29135644     0.78900
Tb938      Tb  0.98524055  0.01731598  0.28608531     1.80700
O939        O  0.60687897  0.06361885  0.31716935    -0.49100
O940        O  0.54570079  0.47576162  0.30732273    -0.56500
C941        C  0.55446105  0.08621900  0.28644007     0.94700
O942        O  0.97110090  0.05530592  0.30740468    -0.56100
Tb943      Tb  0.55863549  0.01888522  0.28722833     1.78100
O944        O  0.92301115  0.47377017  0.26580591    -0.56600
O945        O  0.49548391  0.46658149  0.26055183    -0.75400
O946        O  0.56250754  0.06918695  0.26790982    -0.74700
O947        O  0.53988985  0.01014972  0.22833291    -0.60000
C948        C  0.97372645  0.45026241  0.28177421     0.94300
O949        O  0.49982187  0.01398085  0.34519691    -0.71900
C950        C  0.92064119  0.97007066  0.29354135     0.77800
C951        C  0.55813167  0.46911696  0.28261644     0.78800
O952        O  0.60816547  0.04868529  0.26363878    -0.57100
O953        O  0.56233884  0.48594558  0.25529621    -0.49100
O954        O  0.50245958  0.01944091  0.22698028    -0.75200
O955        O  0.54888899  0.02970711  0.34528365    -0.59200
C956        C  0.52490029  0.02229940  0.36140520     0.92600
C957        C  0.52129571  0.01425317  0.21146008     0.93800
C958        C  0.97111464  0.06723394  0.27806907     0.78100
O959        O  0.94037019  0.97829272  0.31826670    -0.48500
O960        O  0.97963639  0.05595734  0.25283267    -0.49600
O961        O  0.96672998  0.46691596  0.30268773    -0.62300
O962        O  0.53224823  0.07018491  0.30707071    -0.63600
C963        C  0.67659519  0.35769043  0.00203638     0.32500
C964        C  0.67815363  0.35969474  0.07376957     0.32500
C965        C  0.65883724  0.37106628  0.02015418    -0.03700
C966        C  0.66292277  0.32141647  0.01781152    -0.04500
C967        C  0.70922357  0.38204481  0.02022729    -0.04400
C968        C  0.65960577  0.37211108  0.05708166    -0.03700
C969        C  0.66376214  0.32256351  0.05476329    -0.04500
C970        C  0.71011414  0.38300947  0.05748462    -0.04400
C971        C  0.64145608  0.38320847  0.06856941    -0.29800
N972        N  0.62988556  0.38878395  0.03943623     0.16700
C973        C  0.64027770  0.38151565  0.00972525    -0.29800
H974        H  0.63445498  0.38330239  0.98267218     0.18700
C975        C  0.64892262  0.28783014  0.06441156    -0.28700
N976        N  0.63922835  0.26584587  0.03421800     0.15500
C977        C  0.64750666  0.28583671  0.00553461    -0.28700
C978        C  0.73956939  0.39364041  0.06825280    -0.29000
N979        N  0.75647274  0.40021730  0.03900524     0.16000
H980        H  0.74732377  0.39381199  0.09501045     0.18600
C981        C  0.73813496  0.39238163  0.00962989    -0.29000
H982        H  0.74456666  0.39142430  0.98255539     0.18600
H983        H  0.64174749  0.27515662  0.97803152     0.18600
H984        H  0.63672729  0.38657835  0.09585793     0.18700
H985        H  0.64448619  0.27903326  0.09120883     0.18600
C986        C  0.67530443  0.35622463  0.25126165     0.32500
C987        C  0.67611133  0.35709011  0.32309310     0.32500
C988        C  0.66195816  0.37489738  0.26976658    -0.03700
C989        C  0.65686592  0.31920989  0.26641822    -0.04500
C990        C  0.70755482  0.37491618  0.26969708    -0.04400
C991        C  0.66231180  0.37533343  0.30677012    -0.03700
C992        C  0.65730485  0.31970323  0.30337886    -0.04500
C993        C  0.70804328  0.37539049  0.30668684    -0.04400
C994        C  0.64530445  0.38796800  0.31830075    -0.29800
N995        N  0.63499261  0.39524676  0.28927246     0.16700
C996        C  0.64480537  0.38725465  0.25949598    -0.29800
H997        H  0.63857353  0.38858731  0.23247112     0.18700
C998        C  0.64077560  0.28458462  0.31227549    -0.28700
N999        N  0.63042237  0.26311914  0.28166974     0.15500
C1000       C  0.64004348  0.28373786  0.25341526    -0.28700
C1001       C  0.73788067  0.38813483  0.31810264    -0.29000
N1002       N  0.75518266  0.39541192  0.28901055     0.16000
H1003       H  0.74602885  0.39035373  0.34524562     0.18600
C1004       C  0.73699390  0.38730341  0.25930228    -0.29000
H1005       H  0.74427645  0.38871082  0.23224963     0.18600
H1006       H  0.63560690  0.27369519  0.22572897     0.18600
H1007       H  0.63953054  0.38998286  0.34544639     0.18700
H1008       H  0.63701242  0.27530542  0.33886030     0.18600
C1009       C  0.67586848  0.35701977  0.96332033    -0.16000
C1010       C  0.67564301  0.35525528  0.43080761     0.08000
C1011       C  0.67601797  0.35623566  0.39363585     0.09900
C1012       C  0.67627714  0.35700635  0.36182626    -0.16900
C1013       C  0.67510863  0.35597144  0.21265568    -0.16000
C1014       C  0.67596797  0.35706967  0.18097556     0.08000
C1015       C  0.67748304  0.35901940  0.14407253     0.09900
C1016       C  0.67838269  0.36015147  0.11239504    -0.16900
C1017       C  0.57035567  0.12407709  0.28359906    -0.16000
C1018       C  0.58357630  0.15592394  0.28140789     0.08000
C1019       C  0.59943641  0.19335960  0.27977288     0.09900
C1020       C  0.61355559  0.22556091  0.27989540    -0.16900
C1021       C  0.78651504  0.40761148  0.28938885    -0.16000
C1022       C  0.81367197  0.41892682  0.28967925     0.08000
C1023       C  0.84595460  0.43430922  0.29027044     0.09900
C1024       C  0.87388600  0.44990384  0.29096318    -0.16900
C1025       C  0.56878905  0.44665988  0.28596505    -0.16000
C1026       C  0.58138463  0.43156970  0.28799040     0.08000
C1027       C  0.59900580  0.41724993  0.28934980     0.09900
C1028       C  0.61541103  0.40676223  0.28966205    -0.16900
C1029       C  0.56627579  0.12572220  0.03423677    -0.16000
C1030       C  0.58383495  0.15796535  0.03346089     0.08000
C1031       C  0.60411538  0.19577730  0.03294838     0.09900
C1032       C  0.62074464  0.22815525  0.03312061    -0.16900
C1033       C  0.78724625  0.41055398  0.03873213    -0.16000
C1034       C  0.81403756  0.42063825  0.03796351     0.08000
C1035       C  0.84599583  0.43483076  0.03712015     0.09900
C1036       C  0.87378999  0.44969213  0.03718276    -0.16900
C1037       C  0.56540653  0.44235241  0.03615664    -0.16000
C1038       C  0.57735967  0.42651732  0.03801011     0.08000
C1039       C  0.59432546  0.41136708  0.03936623     0.09900
C1040       C  0.61040012  0.40043505  0.03977208    -0.16900
C1041       C  0.50268669  0.01054729  0.42155387    -0.14000
C1042       C  0.52721692  0.02335905  0.40092178    -0.29100
H1043       H  0.47988870  0.99941307  0.40911437     0.15100
H1044       H  0.54998834  0.03437265  0.41336513     0.15600
C1045       C  0.52277296  0.01315583  0.17181884    -0.14000
C1046       C  0.50947861  0.02377063  0.15031671    -0.29100
H1047       H  0.53625353  0.00430751  0.16005616     0.15100
H1048       H  0.53720043  0.52119300  0.15701171     0.15600
C1049       C  0.95992069  0.08910753  0.27357736    -0.16000
C1050       C  0.94703116  0.10387749  0.27110434     0.08000
C1051       C  0.92940458  0.11829021  0.26978237     0.09900
C1052       C  0.91340364  0.12939119  0.27031788    -0.16900
C1053       C  0.91123908  0.31012530  0.28598064    -0.16000
C1054       C  0.92563582  0.34234882  0.28579479     0.08000
C1055       C  0.94242820  0.37991771  0.28411882     0.09900
C1056       C  0.95672147  0.41200010  0.28256530    -0.16900
C1057       C  0.65693708  0.09024884  0.29331023    -0.16000
C1058       C  0.68469831  0.10545539  0.29218034     0.08000
C1059       C  0.71649152  0.11976008  0.28904086     0.09900
C1060       C  0.74313607  0.12987018  0.28621250    -0.16900
C1061       C  0.94212886  0.08419689  0.53913735    -0.16000
C1062       C  0.92976253  0.09954101  0.53828619     0.08000
C1063       C  0.91309473  0.11483366  0.53600569     0.09900
C1064       C  0.89792160  0.12674613  0.53405224    -0.16900
C1065       C  0.95416601  0.41063730  0.03152286    -0.16000
C1066       C  0.93858488  0.37858254  0.03381878     0.08000
C1067       C  0.91982204  0.34108323  0.03656717     0.09900
C1068       C  0.90359529  0.30882803  0.03718700    -0.16900
C1069       C  0.72973490  0.12973907  0.01793384    -0.16000
C1070       C  0.70273658  0.11925305  0.01646997     0.08000
C1071       C  0.67054932  0.10461379  0.01690300     0.09900
C1072       C  0.64279823  0.08950733  0.01935316    -0.16900
C1073       C  0.84352689  0.17864202  0.45444669    -0.16000
C1074       C  0.84765764  0.17901618  0.42300880     0.08000
C1075       C  0.85316565  0.18004284  0.38637279     0.09900
C1076       C  0.85608926  0.18066942  0.35467839    -0.16900
C1077       C  0.83751969  0.17792527  0.10431782    -0.16000
C1078       C  0.83969811  0.17798515  0.13620581     0.08000
C1079       C  0.84389186  0.17795088  0.17324084     0.09900
C1080       C  0.84747214  0.17797349  0.20488555    -0.16900
C1081       C  0.84039279  0.18184219  0.56538808     0.32500
C1082       C  0.84128682  0.17773743  0.99337812     0.32500
C1083       C  0.80853564  0.16214331  0.54546057    -0.03700
C1084       C  0.85899975  0.21849353  0.54923823    -0.04500
C1085       C  0.85454684  0.16335055  0.54881844    -0.04400
C1086       C  0.80831424  0.15841651  0.00729305    -0.03700
C1087       C  0.85839067  0.21479052  0.01350981    -0.04500
C1088       C  0.85467356  0.16010795  0.01180462    -0.04400
C1089       C  0.77958362  0.14757181  0.99346597    -0.29800
N1090       N  0.76072478  0.14062699  0.02094076     0.16700
C1091       C  0.77866578  0.14936610  0.55430134    -0.29800
H1092       H  0.77064048  0.14849602  0.58088455     0.18700
C1093       C  0.87587191  0.24995315  0.00484740    -0.28700
N1094       N  0.88812328  0.27416930  0.53249143     0.15500
C1095       C  0.87691323  0.25430984  0.56128659    -0.28700
C1096       C  0.87289715  0.14859093  0.00230487    -0.29000
N1097       N  0.88215723  0.14164754  0.03242818     0.16000
H1098       H  0.88027822  0.14726054  0.97585782     0.18600
C1099       C  0.87014175  0.14974809  0.56100717    -0.29000
H1100       H  0.87488716  0.14796322  0.58852982     0.18600
H1101       H  0.88163631  0.26512225  0.58872938     0.18600
H1102       H  0.77340391  0.14679551  0.96578666     0.18700
H1103       H  0.88174576  0.25946745  0.97838973     0.18600
C1104       C  0.85518736  0.18141011  0.81560912     0.32500
C1105       C  0.85027173  0.17884677  0.74349746     0.32500
C1106       C  0.82233465  0.16385445  0.79945477    -0.03700
C1107       C  0.87381105  0.21800151  0.79933923    -0.04500
C1108       C  0.86615045  0.16077095  0.79538314    -0.04400
C1109       C  0.81973161  0.16250203  0.76252545    -0.03700
C1110       C  0.87123116  0.21657537  0.76235193    -0.04500
C1111       C  0.86367999  0.15946155  0.75825318    -0.04400
C1112       C  0.78958792  0.15030142  0.75348395    -0.29800
N1113       N  0.77423408  0.14432156  0.78399940     0.16700
C1114       C  0.79385239  0.15255909  0.81222336    -0.29800
H1115       H  0.78816157  0.15188995  0.83989217     0.18700
C1116       C  0.88796256  0.25144082  0.75256709    -0.28700
N1117       N  0.90057623  0.27376307  0.78256419     0.15500
C1118       C  0.89216474  0.25385906  0.81134371    -0.28700
C1119       C  0.87938521  0.14567964  0.74495073    -0.29000
N1120       N  0.89099855  0.13858662  0.77289622     0.16000
H1121       H  0.88356650  0.14294515  0.71725724     0.18600
C1122       C  0.88332349  0.14788127  0.80372739    -0.29000
H1123       H  0.89116601  0.14722405  0.83012764     0.18600
H1124       H  0.89827684  0.26465327  0.83880298     0.18600
H1125       H  0.77993947  0.14750345  0.72702666     0.18700
H1126       H  0.89015930  0.25998101  0.72581387     0.18600
C1127       C  0.61047476  0.07011821  0.52938950     0.78900
Tb1128     Tb  0.97076192  0.01487314  0.53482392     1.80700
O1129       O  0.59812883  0.06071072  0.55890699    -0.49100
O1130       O  0.54864318  0.47939381  0.55809956    -0.56500
C1131       C  0.54025876  0.08602748  0.53383559     0.94700
O1132       O  0.96774595  0.06017614  0.56315962    -0.56100
Tb1133     Tb  0.54608090  0.02031380  0.53652692     1.78100
O1134       O  0.92499107  0.47458299  0.51488215    -0.56600
O1135       O  0.49752886  0.46882737  0.51072544    -0.75400
O1136       O  0.54959790  0.07252588  0.55402263    -0.74700
O1137       O  0.53015834  0.01957959  0.97618317    -0.60000
C1138       C  0.97545928  0.45250860  0.53158462     0.94300
O1139       O  0.99144361  0.02783702  0.59340770    -0.71900
C1140       C  0.90660074  0.96185126  0.53036979     0.77800
C1141       C  0.56090614  0.47260681  0.53326494     0.78800
O1142       O  0.59092562  0.05651105  0.50338364    -0.57100
O1143       O  0.56440022  0.48884713  0.50571450    -0.49100
O1144       O  0.48315040  0.00962271  0.97675756    -0.75200
O1145       O  0.52774942  0.01675225  0.59485687    -0.59200
C1146       C  0.50957783  0.02300220  0.61028385     0.92600
C1147       C  0.50593198  0.01387125  0.96028608     0.93800
C1148       C  0.96036984  0.07022833  0.03700747     0.78100
O1149       O  0.92128661  0.98044679  0.55860110    -0.48500
O1150       O  0.95244098  0.04723481  0.01146525    -0.49600
O1151       O  0.96903413  0.46932640  0.55306781    -0.62500
O1152       O  0.51560281  0.06628413  0.51439460    -0.63600
C1153       C  0.62401267  0.07049552  0.79001907     0.78900
Tb1154     Tb  0.98527738  0.01716054  0.78499669     1.80700
O1155       O  0.60702148  0.06642144  0.81543633    -0.49100
O1156       O  0.54878841  0.47910765  0.80787033    -0.56500
C1157       C  0.55445875  0.08714822  0.78663740     0.94700
O1158       O  0.96615237  0.05037244  0.80526776    -0.56100
Tb1159     Tb  0.55950406  0.02025562  0.78551026     1.78100
O1160       O  0.92510732  0.47297824  0.76653287    -0.56600
O1161       O  0.49978814  0.46892465  0.75959368    -0.75400
O1162       O  0.56270480  0.07063528  0.76751657    -0.74700
O1163       O  0.54038286  0.01130779  0.72684594    -0.60000
C1164       C  0.97764899  0.45175742  0.78019032     0.94300
O1165       O  0.50065294  0.01503871  0.84410689    -0.71900
C1166       C  0.92097794  0.96630808  0.79221763     0.77800
C1167       C  0.56195559  0.47315399  0.78351426     0.78800
O1168       O  0.60913835  0.05078008  0.76239025    -0.57100
O1169       O  0.56644514  0.49027751  0.75635133    -0.49100
O1170       O  0.50340928  0.02140402  0.72621412    -0.75200
O1171       O  0.54883083  0.02809990  0.84405226    -0.59200
C1172       C  0.52522029  0.02183704  0.86023342     0.92600
C1173       C  0.52208854  0.01615718  0.71041088     0.93800
C1174       C  0.96853735  0.06482565  0.77686689     0.78100
O1175       O  0.94083532  0.97811680  0.81774337    -0.48500
O1176       O  0.98039905  0.05695089  0.75256023    -0.49600
O1177       O  0.96987279  0.46770091  0.80106678    -0.62300
O1178       O  0.53183885  0.07041508  0.80669483    -0.63600
C1179       C  0.67656478  0.35663184  0.50150299     0.32500
C1180       C  0.67845823  0.35971665  0.57355565     0.32500
C1181       C  0.66298482  0.37528532  0.51949775    -0.03700
C1182       C  0.65882252  0.32017842  0.51790911    -0.04500
C1183       C  0.70913011  0.37652279  0.51951433    -0.04400
C1184       C  0.66390435  0.37688349  0.55656854    -0.03700
C1185       C  0.65981409  0.32181215  0.55493043    -0.04500
C1186       C  0.71016054  0.37808419  0.55657594    -0.04400
C1187       C  0.64767855  0.39066386  0.56770379    -0.29800
N1188       N  0.63720933  0.39741561  0.53839468     0.16700
C1189       C  0.64627669  0.38809515  0.50881417    -0.29800
H1190       H  0.64007951  0.38917445  0.48168223     0.18700
C1191       C  0.64196421  0.28699488  0.56494795    -0.28700
N1192       N  0.63033137  0.26460607  0.53493919     0.15500
C1193       C  0.64036758  0.28434882  0.50602876    -0.28700
C1194       C  0.74047091  0.39269918  0.56772049    -0.29000
N1195       N  0.75752466  0.40000562  0.53840337     0.16000
H1196       H  0.74913764  0.39605551  0.59485657     0.18600
C1197       C  0.73876081  0.39026082  0.50883363    -0.29000
H1198       H  0.74582469  0.39136221  0.48171445     0.18600
H1199       H  0.63429200  0.27344288  0.47860277     0.18600
H1200       H  0.64276275  0.39414081  0.59486786     0.18700
H1201       H  0.63737072  0.27854915  0.59186849     0.18600
C1202       C  0.67807780  0.35775124  0.75208567     0.32500
C1203       C  0.67886703  0.35973883  0.82404728     0.32500
C1204       C  0.66422374  0.37617921  0.77007633    -0.03700
C1205       C  0.66002355  0.32095247  0.76793451    -0.04500
C1206       C  0.71041616  0.37724106  0.77075221    -0.04400
C1207       C  0.66463371  0.37717541  0.80708894    -0.03700
C1208       C  0.66049753  0.32209367  0.80493962    -0.04500
C1209       C  0.71085526  0.37830155  0.80781226    -0.04400
C1210       C  0.64818995  0.39062499  0.81833635    -0.29800
N1211       N  0.63799929  0.39778705  0.78912305     0.16700
C1212       C  0.64748478  0.38903127  0.75950266    -0.29800
H1213       H  0.64153284  0.39048944  0.73239250     0.18700
C1214       C  0.64387823  0.28718452  0.81457465    -0.28700
N1215       N  0.63337252  0.26510861  0.78437946     0.15500
C1216       C  0.64301026  0.28520242  0.75568270    -0.28700
C1217       C  0.74053514  0.39067835  0.81952889    -0.29000
N1218       N  0.75785180  0.39721848  0.79059197     0.16000
H1219       H  0.74848437  0.39291124  0.84677630     0.18600
C1220       C  0.73978139  0.38886339  0.76069183    -0.29000
H1221       H  0.74702370  0.38938568  0.73374904     0.18600
H1222       H  0.63821687  0.27460153  0.72816542     0.18600
H1223       H  0.64291597  0.39356136  0.84548613     0.18700
H1224       H  0.63992563  0.27845667  0.84139497     0.18600
C1225       C  0.67567271  0.35515249  0.46267551    -0.16000
C1226       C  0.67642820  0.35783515  0.93155723     0.08000
C1227       C  0.67781084  0.35937037  0.89452047     0.09900
C1228       C  0.67880563  0.36019092  0.86276476    -0.16900
C1229       C  0.67789713  0.35707469  0.71324499    -0.16000
C1230       C  0.67840745  0.35801433  0.68141508     0.08000
C1231       C  0.67906531  0.35974450  0.64426064     0.09900
C1232       C  0.67917566  0.36060343  0.61241992    -0.16900
C1233       C  0.57076558  0.12532724  0.78525258    -0.16000
C1234       C  0.58455795  0.15743523  0.78413851     0.08000
C1235       C  0.60119425  0.19513773  0.78327511     0.09900
C1236       C  0.61590853  0.22745317  0.78331174    -0.16900
C1237       C  0.78904078  0.40885728  0.79128053    -0.16000
C1238       C  0.81610273  0.41978976  0.79157670     0.08000
C1239       C  0.84830260  0.43484326  0.79170204     0.09900
C1240       C  0.87619393  0.45031569  0.79179569    -0.16900
C1241       C  0.57292883  0.45097114  0.78695357    -0.16000
C1242       C  0.58558249  0.43588556  0.78862651     0.08000
C1243       C  0.60299888  0.42121711  0.78939684     0.09900
C1244       C  0.61900990  0.41015534  0.78940005    -0.16900
C1245       C  0.55802111  0.12437008  0.53299440    -0.16000
C1246       C  0.57378831  0.15670187  0.53290100     0.08000
C1247       C  0.59321579  0.19459289  0.53335254     0.09900
C1248       C  0.61032244  0.22696502  0.53400399    -0.16900
C1249       C  0.78882938  0.41217342  0.53842315    -0.16000
C1250       C  0.81576822  0.42270484  0.53826620     0.08000
C1251       C  0.84772714  0.43670369  0.53828045     0.09900
C1252       C  0.87553028  0.45149439  0.53878693    -0.16900
C1253       C  0.57207109  0.45057817  0.53651104    -0.16000
C1254       C  0.58486464  0.43562372  0.53787406     0.08000
C1255       C  0.60234483  0.42102021  0.53843734     0.09900
C1256       C  0.61832076  0.40991318  0.53852485    -0.16900
C1257       C  0.50342312  0.01255934  0.92069129    -0.14000
C1258       C  0.52733139  0.02233510  0.89976513    -0.29100
H1259       H  0.48128980  0.00436969  0.90848980     0.15100
H1260       H  0.54949268  0.03068949  0.91202989     0.15600
C1261       C  0.52357088  0.01573592  0.67093924    -0.14000
C1262       C  0.50838825  0.02419288  0.64979277    -0.29100
H1263       H  0.53816098  0.00858239  0.65892858     0.15100
H1264       H  0.54236202  0.52837094  0.65748415     0.15600
C1265       C  0.95686882  0.08625477  0.77242373    -0.16000
C1266       C  0.94389611  0.10099374  0.77049284     0.08000
C1267       C  0.92626129  0.11545487  0.76983456     0.09900
C1268       C  0.91011610  0.12638175  0.77063036    -0.16900
C1269       C  0.91773907  0.31141977  0.78344355    -0.16000
C1270       C  0.93192519  0.34368489  0.78307241     0.08000
C1271       C  0.94790774  0.38131298  0.78166103     0.09900
C1272       C  0.96137846  0.41341621  0.78053906    -0.16900
C1273       C  0.65730053  0.09352342  0.79242791    -0.16000
C1274       C  0.68505570  0.10890422  0.79173846     0.08000
C1275       C  0.71680352  0.12317322  0.78901337     0.09900
C1276       C  0.74344036  0.13333778  0.78639809    -0.16900
C1277       C  0.95056981  0.09366944  0.03825026    -0.16000
C1278       C  0.93810388  0.10892767  0.03756207     0.08000
C1279       C  0.91996404  0.12244973  0.03577392     0.09900
C1280       C  0.90274981  0.13169831  0.03414666    -0.16900
C1281       C  0.95740309  0.41409543  0.53118875    -0.16000
C1282       C  0.94198341  0.38184260  0.53181233     0.08000
C1283       C  0.92354023  0.34411517  0.53292301     0.09900
C1284       C  0.90732045  0.31180946  0.53327932    -0.16900
C1285       C  0.73005056  0.12914915  0.52214073    -0.16000
C1286       C  0.70319568  0.11914838  0.52210632     0.08000
C1287       C  0.67134318  0.10576348  0.52357342     0.09900
C1288       C  0.64370534  0.09159360  0.52572721    -0.16900
C1289       C  0.84416022  0.17846796  0.95462781    -0.16000
C1290       C  0.84848695  0.17988741  0.92317768     0.08000
C1291       C  0.85378011  0.18162202  0.88640872     0.09900
C1292       C  0.85646855  0.18235903  0.85463821    -0.16900
C1293       C  0.84028426  0.18259537  0.60437698    -0.16000
C1294       C  0.84166641  0.18145053  0.63617290     0.08000
C1295       C  0.84449555  0.17940041  0.67307237     0.09900
C1296       C  0.84731256  0.17828624  0.70465410    -0.16900
C1297       C  0.83825656  0.67898439  0.07001321     0.32500
C1298       C  0.83807961  0.67688756  0.49807326     0.32500
C1299       C  0.80611720  0.66099663  0.05143118    -0.03700
C1300       C  0.85721510  0.71613336  0.05502078    -0.04500
C1301       C  0.85111033  0.65984493  0.05130709    -0.04400
C1302       C  0.80750185  0.66341415  0.51598224    -0.03700
C1303       C  0.86066957  0.71430623  0.51673224    -0.04500
C1304       C  0.84829114  0.65467498  0.51363121    -0.04400
C1305       C  0.77787232  0.65215548  0.50571745    -0.29800
N1306       N  0.76178043  0.64671556  0.53553771     0.16700
C1307       C  0.77714851  0.65053241  0.06179681    -0.29800
H1308       H  0.76998873  0.64957914  0.08885074     0.18700
C1309       C  0.87899894  0.74909850  0.50686256    -0.28700
N1310       N  0.88620980  0.77238343  0.03995822     0.15500
C1311       C  0.87554577  0.75161078  0.06812673    -0.28700
C1312       C  0.86775662  0.64558021  0.50172919    -0.29000
N1313       N  0.88019706  0.64059823  0.53031321     0.16000
H1314       H  0.87444641  0.64564218  0.47458885     0.18600
C1315       C  0.86916672  0.64864455  0.06153019    -0.29000
H1316       H  0.87582154  0.64786594  0.08854184     0.18600
H1317       H  0.88085878  0.76158277  0.09584827     0.18600
H1318       H  0.76888595  0.64896436  0.47878367     0.18700
H1319       H  0.88212390  0.75775478  0.48005482     0.18600
C1320       C  0.83951803  0.67990683  0.32011624     0.32500
C1321       C  0.83879007  0.67744268  0.24829013     0.32500
C1322       C  0.80804180  0.66545180  0.30159963    -0.03700
C1323       C  0.86142570  0.71617826  0.30420922    -0.04500
C1324       C  0.84868328  0.65637379  0.30244501    -0.04400
C1325       C  0.80759743  0.66413071  0.26464811    -0.03700
C1326       C  0.86106909  0.71485619  0.26723204    -0.04500
C1327       C  0.84827297  0.65507584  0.26514105    -0.04400
C1328       C  0.77811659  0.65252383  0.25288226    -0.29800
N1329       N  0.76101673  0.64698618  0.28185274     0.16700
C1330       C  0.77895011  0.65478335  0.31172985    -0.29800
H1331       H  0.77152445  0.65341213  0.33870716     0.18700
C1332       C  0.88114902  0.74956123  0.25757057    -0.28700
N1333       N  0.89344708  0.77158640  0.28777729     0.15500
C1334       C  0.88165582  0.75173063  0.31647545    -0.28700
C1335       C  0.86787858  0.64572406  0.25462976    -0.29000
N1336       N  0.87933302  0.64051270  0.28399204     0.16000
H1337       H  0.87529007  0.64567476  0.22788599     0.18600
C1338       C  0.86864887  0.64789098  0.31326447    -0.29000
H1339       H  0.87677723  0.64983746  0.34036000     0.18600
H1340       H  0.88701195  0.76243429  0.34397760     0.18600
H1341       H  0.76989263  0.64900643  0.22550582     0.18700
H1342       H  0.88605861  0.75825766  0.23075211     0.18600
C1343       C  0.60753555  0.56563803  0.03074941     0.78900
Tb1344     Tb  0.97205990  0.51994372  0.04042793     1.80700
O1345       O  0.59098070  0.56504857  0.05518214    -0.49100
O1346       O  0.55565756  0.98305372  0.06837075    -0.56500
C1347       C  0.54318168  0.58793985  0.03588642     0.94700
O1348       O  0.95554274  0.55452273  0.06449599    -0.56100
Tb1349     Tb  0.54275536  0.51675465  0.02844323     1.78100
O1350       O  0.92619475  0.97108415  0.00842758    -0.56600
O1351       O  0.49808897  0.96527134  0.01677491    -0.75400
O1352       O  0.54934536  0.57022816  0.01533354    -0.74700
O1353       O  0.52692720  0.52006918  0.47183670    -0.60000
C1354       C  0.97575053  0.95057340  0.03741196     0.94300
O1355       O  0.99061139  0.52180282  0.09748428    -0.71900
C1356       C  0.90723226  0.47161709  0.03871990     0.77800
C1357       C  0.56199666  0.97026727  0.04224914     0.78800
O1358       O  0.59208826  0.54275621  0.00503572    -0.57100
O1359       O  0.55902299  0.97999846  0.01285238    -0.49100
O1360       O  0.48472406  0.51990959  0.48063300    -0.75200
O1361       O  0.53122029  0.51887172  0.08880604    -0.59200
C1362       C  0.51267451  0.52054360  0.10904075     0.92600
C1363       C  0.50401972  0.51979854  0.46039373     0.93800
C1364       C  0.96092678  0.57275919  0.53564540     0.78100
O1365       O  0.92320066  0.49235617  0.06552471    -0.48500
O1366       O  0.97236939  0.56478876  0.51082116    -0.49600
O1367       O  0.96926492  0.96914138  0.05595241    -0.62500
O1368       O  0.52116282  0.57257695  0.05696719    -0.63600
C1369       C  0.60896969  0.56955578  0.28029003     0.78900
Tb1370     Tb  0.97234011  0.52029603  0.29183512     1.80700
O1371       O  0.59234612  0.56778541  0.30526144    -0.49100
O1372       O  0.57821056  0.98794931  0.30858944    -0.56500
C1373       C  0.54318092  0.58899094  0.28773393     0.94700
O1374       O  0.95784629  0.55670387  0.31637636    -0.56100
Tb1375     Tb  0.54421976  0.51925212  0.27821346     1.78100
O1376       O  0.93277182  0.98368139  0.26492410    -0.56600
O1377       O  0.51252557  0.96836105  0.30676973    -0.75400
O1378       O  0.54865441  0.57153834  0.26587093    -0.74700
O1379       O  0.52496275  0.51818363  0.22178109    -0.60000
C1380       C  0.98791254  0.94978589  0.28702504     0.94300
O1381       O  0.49170388  0.52117907  0.34791465    -0.71900
C1382       C  0.90738819  0.47207926  0.29186364     0.77800
C1383       C  0.57064180  0.96683295  0.28136129     0.78800
O1384       O  0.59355281  0.54736913  0.25408626    -0.57100
O1385       O  0.55616981  0.97048118  0.25725720    -0.49100
O1386       O  0.48336639  0.51915050  0.23114493    -0.75200
O1387       O  0.53375330  0.52108208  0.33890016    -0.59200
C1388       C  0.51454114  0.52123966  0.35921292     0.92600
C1389       C  0.50239881  0.51878791  0.21062334     0.93800
C1390       C  0.95939915  0.57126309  0.28820280     0.78100
O1391       O  0.92387062  0.49316834  0.31827428    -0.48500
O1392       O  0.96857691  0.56178988  0.26204494    -0.49600
O1393       O  0.98010882  0.96462412  0.26657798    -0.62300
O1394       O  0.52116251  0.57327525  0.30877399    -0.63600
C1395       C  0.67889475  0.85874834  0.00334205     0.32500
C1396       C  0.68228908  0.86062260  0.07533585     0.32500
C1397       C  0.67094850  0.88268781  0.02303830    -0.03700
C1398       C  0.65730906  0.82234869  0.01940728    -0.04500
C1399       C  0.71077396  0.87250150  0.02013666    -0.04400
C1400       C  0.67269883  0.88364706  0.06031764    -0.03700
C1401       C  0.65906182  0.82344220  0.05641904    -0.04500
C1402       C  0.71252760  0.87343905  0.05702596    -0.04400
C1403       C  0.65519530  0.89527591  0.07296784    -0.29800
N1404       N  0.64367051  0.90207065  0.04480528     0.16700
C1405       C  0.65238538  0.89371406  0.01430867    -0.29800
H1406       H  0.64377499  0.89289757  0.98782320     0.18700
C1407       C  0.64083254  0.78853024  0.06604597    -0.28700
N1408       N  0.62819295  0.76651037  0.03587486     0.15500
C1409       C  0.63806824  0.78662027  0.00719419    -0.28700
C1410       C  0.74211972  0.88431991  0.06704774    -0.29000
N1411       N  0.75806203  0.88992500  0.03708273     0.16000
H1412       H  0.75123757  0.88743357  0.09389379     0.18600
C1413       C  0.73931103  0.88284578  0.00827235    -0.29000
H1414       H  0.74584428  0.88459756  0.98085149     0.18600
H1415       H  0.63274396  0.77597806  0.97967485     0.18600
H1416       H  0.64917211  0.89587410  0.10030754     0.18700
H1417       H  0.63806500  0.77969794  0.09274464     0.18600
C1418       C  0.69133971  0.85850838  0.25287071     0.32500
C1419       C  0.68888813  0.86173369  0.32471046     0.32500
C1420       C  0.68087478  0.88142011  0.26824323    -0.03700
C1421       C  0.66918419  0.82231837  0.26891333    -0.04500
C1422       C  0.72219278  0.87406095  0.27350304    -0.04400
C1423       C  0.67949021  0.88306858  0.30539551    -0.03700
C1424       C  0.66797154  0.82407542  0.30582607    -0.04500
C1425       C  0.72101097  0.87568151  0.31046635    -0.04400
C1426       C  0.65866694  0.89136803  0.31299860    -0.29800
N1427       N  0.64845424  0.89578541  0.28206268     0.16700
C1428       C  0.66108563  0.88895976  0.25460264    -0.29800
H1429       H  0.65436584  0.88666497  0.22679145     0.18700
C1430       C  0.64782162  0.78949779  0.31566770    -0.28700
N1431       N  0.63695471  0.76707486  0.28572302     0.15500
C1432       C  0.64970949  0.78656262  0.25693392    -0.28700
C1433       C  0.75030311  0.88860392  0.32424318    -0.29000
N1434       N  0.76885004  0.89481296  0.29657162     0.16000
H1435       H  0.75748959  0.89271706  0.35212152     0.18600
C1436       C  0.75204812  0.88608136  0.26550409    -0.29000
H1437       H  0.76080965  0.88786515  0.23918929     0.18600
H1438       H  0.64548232  0.77550283  0.22962255     0.18600
H1439       H  0.64970546  0.89132237  0.33880437     0.18700
H1440       H  0.64184609  0.78115510  0.34250223     0.18600
C1441       C  0.67828902  0.85821578  0.96434495    -0.16000
C1442       C  0.67967980  0.86270952  0.43236831     0.08000
C1443       C  0.68373039  0.86322887  0.39529811     0.09900
C1444       C  0.68692469  0.86307107  0.36360968    -0.16900
C1445       C  0.69218766  0.85740113  0.21405368    -0.16000
C1446       C  0.69073307  0.85835693  0.18232355     0.08000
C1447       C  0.68753008  0.86017917  0.14559832     0.09900
C1448       C  0.68467911  0.86110803  0.11407976    -0.16900
C1449       C  0.56242029  0.62744553  0.28832967    -0.16000
C1450       C  0.57922143  0.65967101  0.28744081     0.08000
C1451       C  0.59926305  0.69729948  0.28583618     0.09900
C1452       C  0.61660166  0.72952117  0.28515043    -0.16900
C1453       C  0.80039972  0.90792652  0.29929525    -0.16000
C1454       C  0.82766378  0.91963524  0.30035932     0.08000
C1455       C  0.85985193  0.93459881  0.29978246     0.09900
C1456       C  0.88754589  0.94922610  0.29780902    -0.16900
C1457       C  0.57968490  0.94274092  0.27763125    -0.16000
C1458       C  0.59143118  0.92665405  0.27624282     0.08000
C1459       C  0.60905562  0.91243996  0.27676656     0.09900
C1460       C  0.62658097  0.90368774  0.27883714    -0.16900
C1461       C  0.56164140  0.62635781  0.03525548    -0.16000
C1462       C  0.57697646  0.65864153  0.03464243     0.08000
C1463       C  0.59478169  0.69646433  0.03429888     0.09900
C1464       C  0.61007786  0.72882717  0.03465202    -0.16900
C1465       C  0.78916130  0.90163120  0.03592630    -0.16000
C1466       C  0.81618454  0.91285379  0.03454955     0.08000
C1467       C  0.84837467  0.92868475  0.03291729     0.09900
C1468       C  0.87629755  0.94525754  0.03231107    -0.16900
C1469       C  0.57393684  0.94906233  0.04562146    -0.16000
C1470       C  0.58738793  0.93489789  0.04709271     0.08000
C1471       C  0.60590655  0.92164924  0.04745761     0.09900
C1472       C  0.62308359  0.91218356  0.04664283    -0.16900
C1473       C  0.49936056  0.51959064  0.42160997    -0.14000
C1474       C  0.51922963  0.52133421  0.39798134    -0.29100
H1475       H  0.47917101  0.51834538  0.41233318     0.15100
H1476       H  0.53942823  0.52258600  0.40723998     0.15600
C1477       C  0.49782076  0.51936751  0.17184172    -0.14000
C1478       C  0.51733395  0.52068127  0.14791661    -0.29100
H1479       H  0.47791435  0.51880925  0.16280910     0.15100
H1480       H  0.49618882  0.03284403  0.16216866     0.15600
C1481       C  0.94924331  0.59425731  0.28573003    -0.16000
C1482       C  0.93671231  0.60946346  0.28460118     0.08000
C1483       C  0.91850926  0.62305000  0.28415625     0.09900
C1484       C  0.90093780  0.63191588  0.28410998    -0.16900
C1485       C  0.91410222  0.80914797  0.28894759    -0.16000
C1486       C  0.93160078  0.84144589  0.28931519     0.08000
C1487       C  0.95165451  0.87920477  0.28891774     0.09900
C1488       C  0.96841427  0.91144990  0.28813957    -0.16900
C1489       C  0.64247873  0.59301917  0.28194776    -0.16000
C1490       C  0.67045816  0.60906403  0.28207201     0.08000
C1491       C  0.70271206  0.62431779  0.28150850     0.09900
C1492       C  0.72978905  0.63527348  0.28129369    -0.16900
C1493       C  0.95089460  0.59572093  0.53196027    -0.16000
C1494       C  0.93837011  0.61085524  0.53002165     0.08000
C1495       C  0.92001688  0.62417717  0.52904998     0.09900
C1496       C  0.90215892  0.63259670  0.52923878    -0.16900
C1497       C  0.95757896  0.91238367  0.03993626    -0.16000
C1498       C  0.94192337  0.88020503  0.04157892     0.08000
C1499       C  0.92284992  0.84241805  0.04243303     0.09900
C1500       C  0.90599818  0.81005130  0.04190252    -0.16900
C1501       C  0.72839501  0.63284314  0.03187526    -0.16000
C1502       C  0.70132801  0.62178149  0.03215576     0.08000
C1503       C  0.66897414  0.60567866  0.03257018     0.09900
C1504       C  0.64097576  0.58903176  0.03234152    -0.16900
C1505       C  0.83677661  0.67634002  0.45934584    -0.16000
C1506       C  0.83723236  0.67770399  0.42762104     0.08000
C1507       C  0.83857014  0.67988948  0.39062917     0.09900
C1508       C  0.83946262  0.68084048  0.35886997    -0.16900
C1509       C  0.83863508  0.67897866  0.10874888    -0.16000
C1510       C  0.83878492  0.67811956  0.14053711     0.08000
C1511       C  0.83869159  0.67697374  0.17767376     0.09900
C1512       C  0.83854198  0.67659152  0.20950793    -0.16900
C1513       C  0.84116039  0.67943651  0.56985812     0.32500
C1514       C  0.83775073  0.67864652  0.99812080     0.32500
C1515       C  0.80911928  0.66473007  0.55293230    -0.03700
C1516       C  0.86228414  0.71569695  0.55367749    -0.04500
C1517       C  0.84986060  0.65600614  0.55094578    -0.04400
C1518       C  0.80578805  0.66084711  0.01438452    -0.03700
C1519       C  0.85692449  0.71585688  0.01806819    -0.04500
C1520       C  0.85092559  0.65970968  0.01431068    -0.04400
C1521       C  0.77653365  0.65032042  0.00302647    -0.29800
N1522       N  0.75938944  0.64386009  0.03212404     0.16700
C1523       C  0.78048176  0.65427496  0.56457639    -0.29800
H1524       H  0.77394410  0.65307180  0.59194690     0.18700
C1525       C  0.87505456  0.75102695  0.00928714    -0.28700
N1526       N  0.89159411  0.77126255  0.53693028     0.15500
C1527       C  0.88160043  0.75140745  0.56574932    -0.28700
C1528       C  0.86897533  0.64848776  0.00279441    -0.29000
N1529       N  0.87960583  0.64156546  0.03176974     0.16000
H1530       H  0.87546840  0.64756931  0.97575008     0.18600
C1531       C  0.87026522  0.64779486  0.56037146    -0.29000
H1532       H  0.87927910  0.64993140  0.58703514     0.18600
H1533       H  0.88713194  0.76220734  0.59322056     0.18600
H1534       H  0.76878275  0.64916431  0.97596293     0.18700
H1535       H  0.87991406  0.76043212  0.98273330     0.18600
C1536       C  0.84197499  0.68088326  0.81986966     0.32500
C1537       C  0.84126152  0.67970435  0.74796013     0.32500
C1538       C  0.80994299  0.66353390  0.80131127    -0.03700
C1539       C  0.86150309  0.71775083  0.80442264    -0.04500
C1540       C  0.85399337  0.66062987  0.80145966    -0.04400
C1541       C  0.80954561  0.66295181  0.76429640    -0.03700
C1542       C  0.86108925  0.71704910  0.76745118    -0.04500
C1543       C  0.85367696  0.66010402  0.76438199    -0.04400
C1544       C  0.77995033  0.65079358  0.75265442    -0.29800
N1545       N  0.76267780  0.64390992  0.78167434     0.16700
C1546       C  0.78060951  0.65163984  0.81150382    -0.29800
H1547       H  0.77318751  0.65016342  0.83849700     0.18700
C1548       C  0.87973066  0.75201045  0.75824643    -0.28700
N1549       N  0.89132108  0.77361704  0.78871408     0.15500
C1550       C  0.88046568  0.75327171  0.81715027    -0.28700
C1551       C  0.87183848  0.64902508  0.75301769    -0.29000
N1552       N  0.88259152  0.64237374  0.78205642     0.16000
H1553       H  0.87851791  0.64829287  0.72602732     0.18600
C1554       C  0.87224780  0.64969643  0.81177823    -0.29000
H1555       H  0.87927462  0.64952190  0.83880551     0.18600
H1556       H  0.88619992  0.76355511  0.84477497     0.18600
H1557       H  0.77193113  0.64856323  0.72544233     0.18700
H1558       H  0.88477399  0.76110381  0.73157612     0.18600
C1559       C  0.61052471  0.57189276  0.52985979     0.78900
Tb1560     Tb  0.97384645  0.52198088  0.54122540     1.80700
O1561       O  0.59402604  0.57078924  0.55461077    -0.49100
O1562       O  0.55355588  0.98427385  0.57198594    -0.56500
C1563       C  0.54364313  0.59114759  0.53724723     0.94700
O1564       O  0.95709815  0.55681308  0.56353144    -0.56100
Tb1565     Tb  0.54597729  0.52191943  0.52841358     1.78100
O1566       O  0.92367014  0.96844200  0.50437373    -0.56600
O1567       O  0.49998491  0.96563975  0.51636483    -0.75400
O1568       O  0.55026205  0.57428317  0.51607461    -0.74700
O1569       O  0.52477023  0.51684119  0.97184898    -0.60000
C1570       C  0.97689261  0.94939982  0.53588774     0.94300
O1571       O  0.99292863  0.52341378  0.59783376    -0.71900
C1572       C  0.90899157  0.47354755  0.54022213     0.77800
C1573       C  0.56353415  0.97380507  0.54772529     0.78800
O1574       O  0.59507727  0.54941952  0.50385363    -0.57100
O1575       O  0.56361916  0.98502671  0.51795046    -0.49100
O1576       O  0.48375796  0.51918709  0.97997585    -0.75200
O1577       O  0.53565024  0.52464445  0.58905259    -0.59200
C1578       C  0.51620162  0.52437863  0.60930938     0.92600
C1579       C  0.50291175  0.51838917  0.96008381     0.93800
C1580       C  0.95822481  0.57019126  0.03677587     0.78100
O1581       O  0.92505267  0.49534223  0.56641248    -0.48500
O1582       O  0.96901812  0.56225843  0.01116296    -0.49600
O1583       O  0.96935428  0.96651328  0.55514897    -0.62500
O1584       O  0.52224120  0.57493534  0.55889735    -0.63600
C1585       C  0.61186750  0.57161521  0.78044918     0.78900
Tb1586     Tb  0.97445251  0.52092498  0.79126330     1.80700
O1587       O  0.59570181  0.56957724  0.80606661    -0.49100
O1588       O  0.58011340  0.99076796  0.80765336    -0.56500
C1589       C  0.54412282  0.59124913  0.78851134     0.94700
O1590       O  0.95599284  0.55417317  0.81286316    -0.56100
Tb1591     Tb  0.54722441  0.52259106  0.77872854     1.78100
O1592       O  0.93296747  0.97828765  0.76301437    -0.56600
O1593       O  0.51388824  0.96919451  0.80471967    -0.75400
O1594       O  0.55146478  0.57510681  0.76738171    -0.74700
O1595       O  0.52859672  0.52239030  0.72219026    -0.60000
C1596       C  0.98923024  0.95076224  0.78517708     0.94300
O1597       O  0.49290504  0.52169578  0.84766348    -0.71900
C1598       C  0.90964909  0.47263780  0.79217398     0.77800
C1599       C  0.57374626  0.97011902  0.78038260     0.78800
O1600       O  0.59606675  0.55065564  0.75369915    -0.57100
O1601       O  0.55946872  0.97335241  0.75564829    -0.49100
O1602       O  0.48470853  0.51879494  0.73056368    -0.75200
O1603       O  0.53600353  0.52367313  0.83940840    -0.59200
C1604       C  0.51601401  0.52256612  0.85938159     0.92600
C1605       C  0.50494065  0.52057804  0.71053153     0.93800
C1606       C  0.96185655  0.57212461  0.78605534     0.78100
O1607       O  0.92622669  0.49525224  0.81763594    -0.48500
O1608       O  0.97506898  0.56583822  0.76202251    -0.49600
O1609       O  0.98168010  0.96564750  0.76450409    -0.62300
O1610       O  0.52252585  0.57429330  0.80982927    -0.63600
C1611       C  0.67850095  0.86192819  0.50324337     0.32500
C1612       C  0.68278232  0.86198339  0.57508780     0.32500
C1613       C  0.67151931  0.88611640  0.52445882    -0.03700
C1614       C  0.65660556  0.82522016  0.51863105    -0.04500
C1615       C  0.71032291  0.87441711  0.51908861    -0.04400
C1616       C  0.67377351  0.88612328  0.56168293    -0.03700
C1617       C  0.65881500  0.82543727  0.55554414    -0.04500
C1618       C  0.71252858  0.87438397  0.55586053    -0.04400
C1619       C  0.65622000  0.89712488  0.57577658    -0.29800
N1620       N  0.64418589  0.90451181  0.54869817     0.16700
C1621       C  0.65251029  0.89698365  0.51738346    -0.29800
H1622       H  0.64336400  0.89661679  0.49140417     0.18700
C1623       C  0.64027899  0.79035410  0.56443535    -0.28700
N1624       N  0.62695269  0.76902890  0.53397904     0.15500
C1625       C  0.63675590  0.78973908  0.50574027    -0.28700
C1626       C  0.74164451  0.88313988  0.56472896    -0.29000
N1627       N  0.75685806  0.88848178  0.53421403     0.16000
H1628       H  0.75080041  0.88464683  0.59110538     0.18600
C1629       C  0.73812767  0.88327978  0.50616817    -0.29000
H1630       H  0.74404750  0.88493138  0.47851397     0.18600
H1631       H  0.63093367  0.77965715  0.47806307     0.18600
H1632       H  0.65049244  0.89685454  0.60337710     0.18700
H1633       H  0.63772016  0.78088344  0.59081039     0.18600
C1634       C  0.69274455  0.86012053  0.75326752     0.32500
C1635       C  0.69089316  0.86248058  0.82518294     0.32500
C1636       C  0.68454523  0.88495498  0.76970045    -0.03700
C1637       C  0.66911123  0.82410383  0.76889815    -0.04500
C1638       C  0.72324939  0.87304373  0.77340959    -0.04400
C1639       C  0.68339966  0.88611019  0.80699085    -0.03700
C1640       C  0.66822707  0.82545440  0.80581380    -0.04500
C1641       C  0.72237132  0.87423420  0.81040305    -0.04400
C1642       C  0.66320968  0.89526528  0.81533621    -0.29800
N1643       N  0.65331274  0.90083020  0.78487069     0.16700
C1644       C  0.66536509  0.89376210  0.75694906    -0.29800
H1645       H  0.65838639  0.89183972  0.72931625     0.18700
C1646       C  0.64655251  0.79107455  0.81527052    -0.28700
N1647       N  0.63440490  0.76909384  0.78505472     0.15500
C1648       C  0.64791558  0.78871461  0.75649718    -0.28700
C1649       C  0.75116697  0.88465728  0.82365441    -0.29000
N1650       N  0.76914989  0.88975057  0.79565759     0.16000
H1651       H  0.75840436  0.88795868  0.85141159     0.18600
C1652       C  0.75243911  0.88278585  0.76489159    -0.29000
H1653       H  0.76081799  0.88434892  0.73839270     0.18600
H1654       H  0.64309688  0.77793819  0.72903775     0.18600
H1655       H  0.65423153  0.89473229  0.84125923     0.18700
H1656       H  0.64047289  0.78251510  0.84202723     0.18600
C1657       C  0.67754778  0.86213007  0.46424274    -0.16000
C1658       C  0.68078093  0.85933195  0.93256982     0.08000
C1659       C  0.68543006  0.86149418  0.89567672     0.09900
C1660       C  0.68904252  0.86287781  0.86407899    -0.16900
C1661       C  0.69318770  0.85912392  0.71429109    -0.16000
C1662       C  0.69153076  0.85947269  0.68241843     0.08000
C1663       C  0.68834276  0.86059011  0.64541455     0.09900
C1664       C  0.68551863  0.86153473  0.61381396    -0.16900
C1665       C  0.56071192  0.62953441  0.78799586    -0.16000
C1666       C  0.57580691  0.66171217  0.78646673     0.08000
C1667       C  0.59506373  0.69940499  0.78462868     0.09900
C1668       C  0.61283256  0.73163488  0.78409511    -0.16900
C1669       C  0.80034407  0.90122823  0.79786245    -0.16000
C1670       C  0.82749882  0.91227954  0.79867122     0.08000
C1671       C  0.85985657  0.92774010  0.79805913     0.09900
C1672       C  0.88775035  0.94357497  0.79618385    -0.16900
C1673       C  0.58372847  0.94688322  0.77753467    -0.16000
C1674       C  0.59609579  0.93149431  0.77756469     0.08000
C1675       C  0.61410969  0.91783956  0.77963612     0.09900
C1676       C  0.63164358  0.90912198  0.78217099    -0.16900
C1677       C  0.56054567  0.62936930  0.53623885    -0.16000
C1678       C  0.57500542  0.66144837  0.53454055     0.08000
C1679       C  0.59251256  0.69905087  0.53262741     0.09900
C1680       C  0.60815227  0.73135284  0.53231980    -0.16900
C1681       C  0.78714925  0.89775783  0.53185027    -0.16000
C1682       C  0.81360396  0.90709355  0.52969015     0.08000
C1683       C  0.84545056  0.92142769  0.52787508     0.09900
C1684       C  0.87332996  0.93755726  0.52785845    -0.16900
C1685       C  0.57562091  0.95301067  0.55338775    -0.16000
C1686       C  0.58889577  0.93864023  0.55525793     0.08000
C1687       C  0.60698183  0.92477031  0.55461159     0.09900
C1688       C  0.62381080  0.91484638  0.55229826    -0.16900
C1689       C  0.49946402  0.51966091  0.92131556    -0.14000
C1690       C  0.51986707  0.52185203  0.89819522    -0.29100
H1691       H  0.47973626  0.51914989  0.91163398     0.15100
H1692       H  0.53972869  0.52263766  0.90788540     0.15600
C1693       C  0.50031898  0.52062234  0.67171961    -0.14000
C1694       C  0.52119572  0.52496975  0.64815021    -0.29100
H1695       H  0.47912421  0.51713217  0.66234218     0.15100
H1696       H  0.49383383  0.03141557  0.66174881     0.15600
C1697       C  0.95210397  0.59543775  0.78267008    -0.16000
C1698       C  0.93950054  0.61056867  0.78147265     0.08000
C1699       C  0.92108599  0.62390096  0.78129453     0.09900
C1700       C  0.90359999  0.63289498  0.78160363    -0.16900
C1701       C  0.91234880  0.81106496  0.79023129    -0.16000
C1702       C  0.93062468  0.84318235  0.79029699     0.08000
C1703       C  0.95176213  0.88062098  0.78887713     0.09900
C1704       C  0.96923226  0.91263908  0.78710341    -0.16900
C1705       C  0.64524541  0.59370848  0.78205190    -0.16000
C1706       C  0.67298085  0.60840806  0.78214115     0.08000
C1707       C  0.70482683  0.62231037  0.78153280     0.09900
C1708       C  0.73164666  0.63257545  0.78125719    -0.16900
C1709       C  0.94770428  0.59281567  0.03410904    -0.16000
C1710       C  0.93514939  0.60796798  0.03259095     0.08000
C1711       C  0.91723421  0.62189216  0.03158235     0.09900
C1712       C  0.90019138  0.63148693  0.03137579    -0.16900
C1713       C  0.95913416  0.91110303  0.53648627    -0.16000
C1714       C  0.94399225  0.87889732  0.53725923     0.08000
C1715       C  0.92599408  0.84118491  0.53797306     0.09900
C1716       C  0.91026246  0.80887946  0.53789964    -0.16900
C1717       C  0.73080478  0.63556155  0.53610527    -0.16000
C1718       C  0.70388690  0.62502701  0.53570876     0.08000
C1719       C  0.67179838  0.61024104  0.53396600     0.09900
C1720       C  0.64392684  0.59468199  0.53201372    -0.16900
C1721       C  0.83814506  0.67908764  0.95938940    -0.16000
C1722       C  0.83957801  0.68015583  0.92762996     0.08000
C1723       C  0.84136331  0.68130029  0.89050908     0.09900
C1724       C  0.84218834  0.68157502  0.85866892    -0.16900
C1725       C  0.84242552  0.68064179  0.60857676    -0.16000
C1726       C  0.84249360  0.68067765  0.64039764     0.08000
C1727       C  0.84182745  0.68006897  0.67750737     0.09900
C1728       C  0.84125093  0.67958571  0.70928559    -0.16900
loop_ 
_geom_bond_atom_site_label_1 
_geom_bond_atom_site_label_2 
_geom_bond_distance 
_geom_bond_site_symmetry_2 
_ccdc_geom_bond_type 
C1            C3   1.537       .  S
C1            C5   1.531       .  S
C1            C4   1.531       .  S
C1          C213   1.467       .  S
C2            C6   1.537       .  S
C2            C8   1.529       .  S
C2            C7   1.530       .  S
C2          C209   1.465       .  S
C3           C11   1.379       .  A
C3          C222   1.400       .  A
C4           C15   1.377       .  A
C4          C223   1.392       .  A
C5           C19   1.377       .  A
C5          C224   1.391       .  A
C6            C9   1.380       .  A
C6          C219   1.397       .  A
C7           C13   1.373       .  A
C7          C220   1.393       .  A
C8           C16   1.376       .  A
C8          C221   1.390       .  A
C9           N10   1.359       .  A
C9           H22   1.082       .  S
N10         C227   1.356       .  A
N10         C421   1.406       .  S
C11         N226   1.357       .  A
C11          H12   1.083       .  S
C13         N230   1.354       .  A
C13          H23   1.083       .  S
N14          C15   1.356       .  A
N14         C229   1.353       .  A
N14         C204   1.398       .  S
C15          H21   1.083       .  S
C16          N17   1.355       .  A
C16          H18   1.082       .  S
N17         C235   1.354       .  A
N17         C200   1.399       .  S
C19         N233   1.355       .  A
C19          H20   1.083       .  S
C24          C26   1.529       .  S
C24          C28   1.534       .  S
C24          C27   1.531       .  S
C24         C212   1.465       .  S
C25          C29   1.532       .  S
C25          C31   1.538       .  S
C25          C30   1.530       .  S
C25         C216   1.467       .  S
C26          C34   1.376       .  A
C26          C29   1.393       .  A
C27          C38   1.377       .  A
C27          C30   1.392       .  A
C28          C42   1.376       .  A
C28          C31   1.396       .  A
C29          C32   1.379       .  A
C30          C36   1.373       .  A
C31          C39   1.380       .  A
C32          N33   1.356       .  A
C32          H45   1.082       .  S
N33          C34   1.353       .  A
N33         C196   1.401       .  S
C34          H35   1.083       .  S
C36          N37   1.355       .  A
C36          H46   1.083       .  S
N37          C38   1.356       .  A
N37         C189   1.399       .  S
C38          H44   1.083       .  S
C39          N40   1.359       .  A
C39          H41   1.082       .  S
N40          C42   1.357       .  A
N40         C188   1.406       .  S
C42          H43   1.083       .  S
C47          O62   1.260       .  A
C47          O49   1.256       .  A
C47         C208   1.442       .  S
Tb48         O59   2.342       .  S
Tb48         O52   2.364       .  S
Tb48         O69   2.346   1_545  S
Tb48        O286   2.343       .  S
Tb48        O503   2.344   1_545  S
Tb48        O486   2.363   1_545  S
Tb48       O1144   2.338   1_554  S
Tb48        O936   2.346       .  S
O49         Tb53   2.357       .  S
O50          C61   1.263       .  A
O50        Tb485   2.361       .  S
C51          O56   1.262       .  A
C51          O72   1.264       .  A
C51         C165   1.434       .  S
O52         C284   1.261       .  A
Tb53         O62   2.375       .  S
Tb53         O56   2.332       .  S
Tb53         O65   2.400       .  S
Tb53        O482   2.366   1_545  S
Tb53        O273   2.389   1_554  S
Tb53        O495   2.357   1_545  S
Tb53        O487   2.334   1_445  S
O54         C492   1.262       .  A
O54        Tb480   2.362       .  S
O55         C922   1.263       .  A
O55        Tb485   2.337   1_655  S
O57          C67   1.282       .  A
O57        Tb269   2.386       .  S
C58          O71   1.263       .  A
C58         O919   1.263       .  A
C58         C201   1.430       .  S
O59         C930   1.273       .  A
C60          O69   1.257       .  A
C60         O486   1.262       .  A
C60         C604   1.433       .  S
C61          O63   1.260       .  A
C61         C173   1.437       .  S
O63        Tb485   2.349       .  S
O64          C67   1.271   1_655  A
O64       Tb1128   2.337       .  S
O65          C66   1.285       .  A
C66         O923   1.273   1_455  A
C66         C182   1.495       .  S
C67         C177   1.488       .  S
C68          O70   1.256       .  A
C68         O268   1.260       .  A
C68         C197   1.430       .  S
O70        Tb264   2.344       .  S
O71        Tb480   2.339       .  S
O72        Tb912   2.346   1_455  S
C73          O88   1.256       .  A
C73          O75   1.261       .  A
C73         C193   1.434       .  S
Tb74         O96   2.368       .  S
Tb74         O78   2.358       .  S
Tb74         O95   2.372   1_545  S
Tb74        O529   2.334   1_545  S
Tb74        O512   2.358   1_545  S
Tb74        O954   2.394       .  S
Tb74        O949   2.391       .  S
Tb74        O962   2.329       .  S
O75         Tb79   2.368       .  S
O76          C87   1.262       .  A
O76        Tb511   2.359       .  S
C77          O82   1.264       .  A
C77          O98   1.261       .  A
C77         C153   1.430       .  S
O78          C94   1.258       .  A
Tb79         O83   2.339       .  S
Tb79         O88   2.345       .  S
Tb79         O82   2.342       .  S
Tb79         O91   2.340       .  S
Tb79        O508   2.346   1_545  S
Tb79        O521   2.359   1_545  S
Tb79        O513   2.342   1_545  S
O80         C518   1.261       .  A
O80        Tb506   2.362       .  S
O81         C948   1.264       .  A
O81        Tb511   2.340   1_655  S
O83          C93   1.271       .  A
C84          O97   1.263       .  A
C84         O945   1.264       .  A
C84         C192   1.431       .  S
O85          C92   1.283   1_655  A
O85        Tb938   2.391       .  S
C86          O95   1.260       .  A
C86         O512   1.256       .  A
C86         C592   1.439       .  S
C87          O89   1.261       .  A
C87         C161   1.436       .  S
O89        Tb511   2.348       .  S
O90          C93   1.283       .  A
O90        Tb938   2.394   1_455  S
O91          C92   1.272       .  A
C92         C178   1.488       .  S
C93         C181   1.495       .  S
C94          O96   1.260       .  A
C94         C185   1.440       .  S
O97        Tb506   2.338       .  S
O98        Tb938   2.329   1_455  S
C99         C101   1.529       .  S
C99         C103   1.533       .  S
C99         C102   1.531       .  S
C99         C145   1.456   1_554  S
C100        C104   1.531       .  S
C100        C106   1.534       .  S
C100        C105   1.527       .  S
C100        C152   1.453       .  S
C101        C109   1.376       .  A
C101        C104   1.388       .  A
C102        C113   1.377       .  A
C102        C105   1.389       .  A
C103        C117   1.378       .  A
C103        C106   1.401       .  A
C104        C107   1.379       .  A
C105        C111   1.374       .  A
C106        C114   1.381       .  A
C107        N108   1.357       .  A
C107        H120   1.082       .  S
N108        C109   1.356       .  A
N108        C176   1.403       .  S
C109        H110   1.083   1_554  S
C111        N112   1.355       .  A
C111        H121   1.083       .  S
N112        C113   1.357       .  A
N112        C168   1.401       .  S
C113        H119   1.082   1_554  S
C114        N115   1.354       .  A
C114        H116   1.083       .  S
N115        C117   1.352       .  A
N115        C169   1.403       .  S
C117        H118   1.083   1_554  S
C122        C124   1.530       .  S
C122        C126   1.530       .  S
C122        C125   1.528       .  S
C122        C149   1.453       .  S
C123        C127   1.533       .  S
C123        C129   1.534       .  S
C123        C128   1.530       .  S
C123        C148   1.458       .  S
C124        C132   1.376       .  A
C124        C127   1.392       .  A
C125        C136   1.376       .  A
C125        C128   1.390       .  A
C126        C140   1.377       .  A
C126        C129   1.391       .  A
C127        C130   1.378       .  A
C128        C134   1.373       .  A
C129        C137   1.379       .  A
C130        N131   1.357       .  A
C130        H143   1.082       .  S
N131        C132   1.356       .  A
N131        C164   1.403       .  S
C132        H133   1.083       .  S
C134        N135   1.355       .  A
C134        H144   1.083       .  S
N135        C136   1.356       .  A
N135        C156   1.399       .  S
C136        H142   1.083       .  S
C137        N138   1.357       .  A
C137        H139   1.083       .  S
N138        C140   1.356       .  A
N138        C157   1.404       .  S
C140        H141   1.083       .  S
C145        C362   1.198       .  T
C146        C361   1.200       .  T
C146        C147   1.402       .  S
C147        C148   1.200       .  T
C149        C150   1.197       .  T
C150        C151   1.397       .  S
C151        C152   1.197       .  T
C153        C154   1.203       .  T
C154        C155   1.408       .  S
C155        C156   1.203       .  T
C157        C158   1.208       .  T
C158        C159   1.415       .  S
C159        C160   1.208       .  T
C160        C518   1.438       .  S
C161        C162   1.206       .  T
C162        C163   1.414       .  S
C163        C164   1.207       .  T
C165        C166   1.205       .  T
C166        C167   1.411       .  S
C167        C168   1.205       .  T
C169        C170   1.206       .  T
C170        C171   1.413       .  S
C171        C172   1.206       .  T
C172        C492   1.436       .  S
C173        C174   1.207       .  T
C174        C175   1.414       .  S
C175        C176   1.207       .  T
C177        C178   1.343       .  D
C177        H179   1.087   1_445  S
C178        H180   1.087       .  S
C181        C182   1.345       .  D
C181        H183   1.086       .  S
C182        H616   1.087   1_455  S
H184        C614   1.086       .  S
C185        C186   1.209       .  T
C186        C187   1.417       .  S
C187        C188   1.209       .  T
C189        C190   1.204       .  T
C190        C191   1.408       .  S
C191        C192   1.203       .  T
C193        C194   1.205       .  T
C194        C195   1.411       .  S
C195        C196   1.205       .  T
C197        C198   1.203       .  T
C198        C199   1.408       .  S
C199        C200   1.203       .  T
C201        C202   1.203       .  T
C202        C203   1.407       .  S
C203        C204   1.202       .  T
C205        N226   1.407       .  S
C205        C206   1.210       .  T
C206        C207   1.419       .  S
C207        C208   1.210       .  T
C209        C210   1.204       .  T
C210        C211   1.409       .  S
C211        C212   1.204       .  T
C213        C214   1.205       .  T
C214        C215   1.411       .  S
C215        C216   1.205       .  T
C217        C219   1.534       .  S
C217        C221   1.528       .  S
C217        C220   1.533       .  S
C217        C429   1.467       .  S
C218        C222   1.536   1_556  S
C218        C224   1.529   1_556  S
C218        C223   1.528   1_556  S
C218        C425   1.468       .  S
C219        C227   1.376       .  A
C220        C231   1.377       .  A
C221        C235   1.374       .  A
C222        C225   1.379   1_554  A
C223        C229   1.371       .  A
C224        C232   1.376       .  A
C225        N226   1.357   1_556  A
C225        H238   1.082       .  S
C227        H228   1.083       .  S
C229        H239   1.083   1_554  S
N230        C231   1.357       .  A
N230        C420   1.399       .  S
C231        H237   1.083       .  S
C232        N233   1.355       .  A
C232        H234   1.082   1_554  S
N233        C416   1.400       .  S
C235        H236   1.083       .  S
C240        C242   1.529       .  S
C240        C244   1.536       .  S
C240        C243   1.533       .  S
C240        C428   1.468       .  S
C241        C245   1.530       .  S
C241        C247   1.537       .  S
C241        C246   1.531       .  S
C241        C432   1.467       .  S
C242        C250   1.375       .  A
C242        C245   1.391       .  A
C243        C254   1.378       .  A
C243        C246   1.393       .  A
C244        C258   1.377       .  A
C244        C247   1.398       .  A
C245        C248   1.378       .  A
C246        C252   1.375       .  A
C247        C255   1.380       .  A
C248        N249   1.356       .  A
C248        H261   1.082       .  S
N249        C250   1.354       .  A
N249        C412   1.399       .  S
C250        H251   1.083       .  S
C252        N253   1.355       .  A
C252        H262   1.083       .  S
N253        C254   1.358       .  A
N253        C405   1.403       .  S
C254        H260   1.082       .  S
C255        N256   1.358       .  A
C255        H257   1.082       .  S
N256        C258   1.357       .  A
N256        C404   1.407       .  S
C258        H259   1.083       .  S
C263        O278   1.259       .  A
C263        O265   1.257       .  A
C263        C424   1.441       .  S
Tb264       O719   2.337   1_545  S
Tb264       O702   2.361   1_545  S
Tb264       O928   2.337       .  S
Tb264       O275   2.342       .  S
Tb264       O268   2.363       .  S
Tb264      O1152   2.340       .  S
Tb264       O285   2.347   1_545  S
O265       Tb269   2.362       .  S
O266        C277   1.263       .  A
O266       Tb701   2.364       .  S
C267        O272   1.264       .  A
C267        O288   1.264       .  A
C267        C381   1.432       .  S
Tb269       O698   2.372   1_545  S
Tb269       O278   2.369       .  S
Tb269       O272   2.338       .  S
Tb269       O711   2.355   1_545  S
Tb269       O281   2.380       .  S
Tb269       O703   2.336   1_445  S
O270        C708   1.262       .  A
O270       Tb696   2.362       .  S
O271       C1138   1.263       .  A
O271       Tb701   2.340   1_655  S
O273        C283   1.282       .  A
C274       O1135   1.263       .  A
C274        O287   1.263       .  A
C274        C417   1.430       .  S
O275       C1146   1.272       .  A
C276        O702   1.260       .  A
C276        O285   1.257       .  A
C276        C820   1.431       .  S
C277        O279   1.260       .  A
C277        C389   1.439       .  S
O279       Tb701   2.349       .  S
O280        C283   1.271   1_655  A
O280       Tb912   2.338   1_556  S
O281        C282   1.281       .  A
C282       O1139   1.272   1_455  A
C282        C398   1.488       .  S
C283        C393   1.491       .  S
C284        O286   1.256       .  A
C284        C413   1.431       .  S
O287       Tb696   2.335       .  S
O288      Tb1128   2.340   1_455  S
C289        O304   1.256       .  A
C289        O291   1.261       .  A
C289        C409   1.429       .  S
Tb290       O312   2.374       .  S
Tb290       O745   2.333   1_545  S
Tb290       O728   2.362   1_545  S
Tb290      O1170   2.389       .  S
Tb290      O1165   2.390       .  S
Tb290       O294   2.356       .  S
Tb290      O1178   2.333       .  S
Tb290       O311   2.371   1_545  S
O291       Tb295   2.362       .  S
O292        C303   1.263       .  A
O292       Tb727   2.362       .  S
C293        O298   1.265       .  A
C293        O314   1.263       .  A
C293        C369   1.434       .  S
O294        C310   1.256       .  A
Tb295       O724   2.343   1_545  S
Tb295       O299   2.336       .  S
Tb295       O304   2.341       .  S
Tb295       O298   2.345       .  S
Tb295       O737   2.362   1_545  S
Tb295       O307   2.338       .  S
Tb295       O729   2.335   1_545  S
O296        C734   1.262       .  A
O296       Tb722   2.362       .  S
O297       C1164   1.264       .  A
O297       Tb727   2.337   1_655  S
O299        C309   1.271       .  A
C300       O1161   1.264       .  A
C300        O313   1.266       .  A
C300        C408   1.437       .  S
O301        C308   1.283       .  A
O301      Tb1154   2.390   1_455  S
C302        O728   1.257       .  A
C302        O311   1.260       .  A
C302        C808   1.443       .  S
C303        O305   1.261       .  A
C303        C377   1.438       .  S
O305       Tb727   2.349       .  S
O306        C309   1.282       .  A
O306      Tb1154   2.389   1_455  S
O307        C308   1.272       .  A
C308        C394   1.490       .  S
C309        C397   1.488       .  S
C310        O312   1.260       .  A
C310        C401   1.441       .  S
O313       Tb722   2.349       .  S
O314      Tb1154   2.333   1_455  S
C315        C317   1.531       .  S
C315        C319   1.531       .  S
C315        C318   1.531       .  S
C315        C361   1.459       .  S
C316        C320   1.535       .  S
C316        C322   1.534       .  S
C316        C321   1.530       .  S
C316        C368   1.461       .  S
C317        C325   1.377       .  A
C317        C320   1.393       .  A
C318        C329   1.376       .  A
C318        C321   1.391       .  A
C319        C333   1.376       .  A
C319        C322   1.392       .  A
C320        C323   1.379       .  A
C321        C327   1.375       .  A
C322        C330   1.378       .  A
C323        N324   1.358       .  A
C323        H336   1.082       .  S
N324        C325   1.356       .  A
N324        C392   1.405       .  S
C325        H326   1.083       .  S
C327        N328   1.355       .  A
C327        H337   1.083       .  S
N328        C329   1.356       .  A
N328        C384   1.400       .  S
C329        H335   1.082       .  S
C330        N331   1.357       .  A
C330        H332   1.083       .  S
N331        C333   1.356       .  A
N331        C385   1.403       .  S
C333        H334   1.083       .  S
C338        C340   1.534       .  S
C338        C342   1.533       .  S
C338        C341   1.533       .  S
C338        C365   1.461       .  S
C339        C343   1.531       .  S
C339        C345   1.532       .  S
C339        C344   1.529       .  S
C339        C364   1.457       .  S
C340        C348   1.379       .  A
C340        C343   1.391       .  A
C341        C352   1.378       .  A
C341        C344   1.391       .  A
C342        C356   1.378       .  A
C342        C345   1.393       .  A
C343        C346   1.378       .  A
C344        C350   1.374       .  A
C345        C353   1.379       .  A
C346        N347   1.357       .  A
C346        H359   1.082       .  S
N347        C348   1.357       .  A
N347        C380   1.405       .  S
C348        H349   1.083       .  S
C350        N351   1.355       .  A
C350        H360   1.083       .  S
N351        C352   1.357       .  A
N351        C372   1.401       .  S
C352        H358   1.082       .  S
C353        N354   1.357       .  A
C353        H355   1.083       .  S
N354        C356   1.356       .  A
N354        C373   1.404       .  S
C356        H357   1.083       .  S
C362        C363   1.400       .  S
C363        C364   1.199       .  T
C365        C366   1.201       .  T
C366        C367   1.405       .  S
C367        C368   1.201       .  T
C369        C370   1.205       .  T
C370        C371   1.411       .  S
C371        C372   1.205       .  T
C373        C374   1.207       .  T
C374        C375   1.415       .  S
C375        C376   1.207       .  T
C376        C734   1.437       .  S
C377        C378   1.208       .  T
C378        C379   1.416       .  S
C379        C380   1.208       .  T
C381        C382   1.204       .  T
C382        C383   1.409       .  S
C383        C384   1.204       .  T
C385        C386   1.207       .  T
C386        C387   1.414       .  S
C387        C388   1.207       .  T
C388        C708   1.436       .  S
C389        C390   1.208       .  T
C390        C391   1.416       .  S
C391        C392   1.208       .  T
C393        C394   1.344       .  D
C393        H395   1.087   1_455  S
C394        H396   1.087       .  S
C397        C398   1.344       .  D
C397        H399   1.087       .  S
C398        H832   1.086   1_455  S
H400        C830   1.086       .  S
C401        C402   1.209       .  T
C402        C403   1.418       .  S
C403        C404   1.210       .  T
C405        C406   1.207       .  T
C406        C407   1.414       .  S
C407        C408   1.207       .  T
C409        C410   1.203       .  T
C410        C411   1.408       .  S
C411        C412   1.203       .  T
C413        C414   1.204       .  T
C414        C415   1.409       .  S
C415        C416   1.204       .  T
C417        C418   1.203       .  T
C418        C419   1.408       .  S
C419        C420   1.203       .  T
C421        C422   1.210       .  T
C422        C423   1.418       .  S
C423        C424   1.209       .  T
C425        C426   1.205       .  T
C426        C427   1.411       .  S
C427        C428   1.205       .  T
C429        C430   1.205       .  T
C430        C431   1.410       .  S
C431        C432   1.205       .  T
C433        C435   1.531       .  S
C433        C437   1.530       .  S
C433        C436   1.530       .  S
C433        C645   1.458       .  S
C434        C438   1.530       .  S
C434        C440   1.534       .  S
C434        C439   1.527       .  S
C434        C641   1.457       .  S
C435        C443   1.376       .  A
C435        C654   1.394       .  A
C436        C447   1.377       .  A
C436        C655   1.390       .  A
C437        C451   1.377       .  A
C437        C656   1.392       .  A
C438        C651   1.389       .  A
C438        C441   1.376       .  A
C439        C652   1.389       .  A
C439        C445   1.373       .  A
C440        C653   1.403       .  A
C440        C448   1.380       .  A
C441        N442   1.356       .  A
C441        H454   1.082       .  S
N442        C659   1.355       .  A
N442        C853   1.401       .  S
C443        N658   1.355       .  A
C443        H444   1.083       .  S
C445        N662   1.354       .  A
C445        H455   1.083       .  S
N446        C661   1.354       .  A
N446        C447   1.356       .  A
N446        C636   1.400       .  S
C447        H453   1.082       .  S
C448        N449   1.353       .  A
C448        H450   1.083       .  S
N449        C667   1.352       .  A
N449        C632   1.401       .  S
C451        N665   1.355       .  A
C451        H452   1.083       .  S
C456        C458   1.530       .  S
C456        C460   1.535       .  S
C456        C459   1.529       .  S
C456        C644   1.457       .  S
C457        C461   1.532       .  S
C457        C463   1.534       .  S
C457        C462   1.529       .  S
C457        C648   1.458       .  S
C458        C466   1.377       .  A
C458        C461   1.389       .  A
C459        C470   1.376       .  A
C459        C462   1.390       .  A
C460        C474   1.381       .  A
C460        C463   1.402       .  A
C461        C464   1.380       .  A
C462        C468   1.374       .  A
C463        C471   1.380       .  A
C464        N465   1.358       .  A
C464        H477   1.082       .  S
N465        C466   1.356       .  A
N465        C628   1.405       .  S
C466        H467   1.083       .  S
C468        N469   1.355       .  A
C468        H478   1.083       .  S
N469        C470   1.356       .  A
N469        C621   1.399       .  S
C470        H476   1.083       .  S
C471        N472   1.353       .  A
C471        H473   1.083       .  S
N472        C474   1.353       .  A
N472        C620   1.403       .  S
C474        H475   1.083       .  S
C479        O494   1.259       .  A
C479        O481   1.262       .  A
C479        C640   1.436       .  S
Tb480       O718   2.358       .  S
Tb480      O1576   2.366   1_554  S
Tb480       O491   2.331       .  S
Tb480       O484   2.348       .  S
Tb480      O1368   2.340       .  S
Tb480       O501   2.348       .  S
O481       Tb485   2.360       .  S
O482        C493   1.260       .  A
C483        O488   1.264       .  A
C483        O504   1.264       .  A
C483        C597   1.432       .  S
O484        C716   1.260       .  A
Tb485       O705   2.328   1_554  S
Tb485       O494   2.348       .  S
Tb485       O488   2.340       .  S
Tb485       O497   2.367       .  S
O487       C1354   1.262       .  A
O489        C499   1.272       .  A
O489       Tb701   2.326       .  S
C490       O1351   1.262       .  A
C490        O503   1.263       .  A
C490        C633   1.432       .  S
O491       C1362   1.273       .  A
C492        O501   1.259       .  A
C493        O495   1.257       .  A
C493        C605   1.438       .  S
O496        C499   1.277   1_655  A
O496      Tb1560   2.366       .  S
O497        C498   1.277       .  A
C498       O1355   1.273   1_455  A
C498        C614   1.482       .  S
C499        C609   1.478   1_455  S
C500        O700   1.260       .  A
C500        O502   1.262       .  A
C500        C629   1.433       .  S
O502       Tb696   2.357       .  S
O504      Tb1344   2.340   1_455  S
C505        O520   1.260       .  A
C505        O507   1.263       .  A
C505        C625   1.439       .  S
Tb506       O528   2.356       .  S
Tb506      O1386   2.367       .  S
Tb506      O1381   2.327       .  S
Tb506       O510   2.347       .  S
Tb506      O1394   2.342       .  S
Tb506       O527   2.356       .  S
O507       Tb511   2.365       .  S
O508        C519   1.257       .  A
C509        O514   1.262       .  A
C509        O530   1.264       .  A
C509        C585   1.430       .  S
O510        C526   1.260       .  A
Tb511       O515   2.335       .  S
Tb511       O520   2.350       .  S
Tb511       O514   2.333       .  S
Tb511       O523   2.362       .  S
O513       C1380   1.264   1_455  A
O515        C525   1.274       .  A
C516       O1377   1.264       .  A
C516        O529   1.263       .  A
C516        C624   1.431       .  S
O517        C524   1.272   1_655  A
O517      Tb1370   2.327       .  S
C518        O527   1.260       .  A
C519        O521   1.260       .  A
C519        C593   1.431       .  S
O522        C525   1.277   1_655  A
O522      Tb1370   2.367       .  S
O523        C524   1.276       .  A
C524        C610   1.478       .  S
C525        C613   1.483   1_455  S
C526        O528   1.262       .  A
C526        C617   1.434       .  S
O530      Tb1370   2.342   1_455  S
C531        C533   1.538       .  S
C531        C535   1.529       .  S
C531        C534   1.533       .  S
C531        C577   1.467   1_554  S
C532        C536   1.535       .  S
C532        C538   1.528       .  S
C532        C537   1.529       .  S
C532        C584   1.461       .  S
C533        C541   1.379       .  A
C533        C536   1.403       .  A
C534        C545   1.377       .  A
C534        C537   1.392       .  A
C535        C549   1.376       .  A
C535        C538   1.388       .  A
C536        C539   1.380       .  A
C537        C543   1.374       .  A
C538        C546   1.377       .  A
C539        N540   1.355       .  A
C539        H552   1.083       .  S
N540        C541   1.355       .  A
N540        C608   1.404       .  S
C541        H542   1.083   1_554  S
C543        N544   1.355       .  A
C543        H553   1.083       .  S
N544        C545   1.357       .  A
N544        C600   1.401       .  S
C545        H551   1.082   1_554  S
C546        N547   1.356       .  A
C546        H548   1.083       .  S
N547        C549   1.355       .  A
N547        C601   1.401       .  S
C549        H550   1.083   1_554  S
C554        C556   1.529       .  S
C554        C558   1.529       .  S
C554        C557   1.530       .  S
C554        C581   1.461       .  S
C555        C559   1.534       .  S
C555        C561   1.536       .  S
C555        C560   1.529       .  S
C555        C580   1.469       .  S
C556        C564   1.378       .  A
C556        C559   1.401       .  A
C557        C568   1.377       .  A
C557        C560   1.392       .  A
C558        C572   1.375       .  A
C558        C561   1.393       .  A
C559        C562   1.379       .  A
C560        C566   1.373       .  A
C561        C569   1.379       .  A
C562        N563   1.353       .  A
C562        H575   1.082       .  S
N563        C564   1.350       .  A
N563        C596   1.399       .  S
C564        H565   1.083       .  S
C566        N567   1.354       .  A
C566        H576   1.083       .  S
N567        C568   1.356       .  A
N567        C588   1.399       .  S
C568        H574   1.083       .  S
C569        N570   1.358       .  A
C569        H571   1.082       .  S
N570        C572   1.356       .  A
N570        C589   1.404       .  S
C572        H573   1.083       .  S
C577        C794   1.205       .  T
C578        C793   1.206       .  T
C578        C579   1.412       .  S
C579        C580   1.206       .  T
C581        C582   1.201       .  T
C582        C583   1.405       .  S
C583        C584   1.201       .  T
C585        C586   1.203       .  T
C586        C587   1.408       .  S
C587        C588   1.203       .  T
C589        C590   1.208       .  T
C590        C591   1.416       .  S
C591        C592   1.208       .  T
C593        C594   1.203       .  T
C594        C595   1.408       .  S
C595        C596   1.203       .  T
C597        C598   1.204       .  T
C598        C599   1.410       .  S
C599        C600   1.205       .  T
C601        C602   1.205       .  T
C602        C603   1.411       .  S
C603        C604   1.205       .  T
C605        C606   1.207       .  T
C606        C607   1.415       .  S
C607        C608   1.208       .  T
C609        C610   1.348   1_655  D
C609        H611   1.086       .  S
C610        H612   1.087       .  S
C613        C614   1.348   1_655  D
C613        H615   1.086       .  S
C617        C618   1.206       .  T
C618        C619   1.412       .  S
C619        C620   1.206       .  T
C621        C622   1.203       .  T
C622        C623   1.408       .  S
C623        C624   1.203       .  T
C625        C626   1.208       .  T
C626        C627   1.416       .  S
C627        C628   1.208       .  T
C629        C630   1.205       .  T
C630        C631   1.411       .  S
C631        C632   1.205       .  T
C633        C634   1.204       .  T
C634        C635   1.409       .  S
C635        C636   1.204       .  T
C637        N658   1.403       .  S
C637        C638   1.207       .  T
C638        C639   1.413       .  S
C639        C640   1.206       .  T
C641        C642   1.199       .  T
C642        C643   1.401       .  S
C643        C644   1.199       .  T
C645        C646   1.200       .  T
C646        C647   1.402       .  S
C647        C648   1.200       .  T
C649        C651   1.528       .  S
C649        C653   1.533       .  S
C649        C652   1.528       .  S
C649        C861   1.455       .  S
C650        C654   1.534   1_556  S
C650        C656   1.532   1_556  S
C650        C655   1.528   1_556  S
C650        C857   1.460       .  S
C651        C659   1.376       .  A
C652        C663   1.376       .  A
C653        C667   1.378       .  A
C654        C657   1.379       .  A
C655        C661   1.373       .  A
C656        C664   1.378       .  A
C657        N658   1.357       .  A
C657        H670   1.083   1_554  S
C659        H660   1.083       .  S
C661        H671   1.083   1_554  S
N662        C663   1.356       .  A
N662        C852   1.398       .  S
C663        H669   1.083       .  S
C664        N665   1.356       .  A
C664        H666   1.082   1_554  S
N665        C848   1.402       .  S
C667        H668   1.083       .  S
C672        C674   1.530       .  S
C672        C676   1.533       .  S
C672        C675   1.529       .  S
C672        C860   1.459       .  S
C673        C677   1.530       .  S
C673        C679   1.531       .  S
C673        C678   1.526       .  S
C673        C864   1.456       .  S
C674        C682   1.375       .  A
C674        C677   1.392       .  A
C675        C686   1.375       .  A
C675        C678   1.390       .  A
C676        C690   1.378       .  A
C676        C679   1.395       .  A
C677        C680   1.377       .  A
C678        C684   1.372       .  A
C679        C687   1.377       .  A
C680        N681   1.356       .  A
C680        H693   1.083       .  S
N681        C682   1.355       .  A
N681        C844   1.400       .  S
C682        H683   1.083       .  S
C684        N685   1.353       .  A
C684        H694   1.083       .  S
N685        C686   1.355       .  A
N685        C837   1.396       .  S
C686        H692   1.083       .  S
C687        N688   1.355       .  A
C687        H689   1.082       .  S
N688        C690   1.356       .  A
N688        C836   1.403       .  S
C690        H691   1.083       .  S
C695        O710   1.260       .  A
C695        O697   1.261       .  A
C695        C856   1.434       .  S
Tb696      O1360   2.366       .  S
Tb696       O707   2.332       .  S
Tb696       O700   2.345       .  S
Tb696      O1584   2.336       .  S
Tb696       O717   2.350       .  S
O697       Tb701   2.356       .  S
O698        C709   1.260       .  A
C699        O704   1.264       .  A
C699        O720   1.263       .  A
C699        C813   1.431       .  S
Tb701       O710   2.350       .  S
Tb701       O704   2.341       .  S
Tb701       O713   2.363       .  S
O703       C1570   1.263       .  A
O705        C715   1.273       .  A
C706       O1567   1.263       .  A
C706        O719   1.263       .  A
C706        C849   1.429       .  S
O707       C1578   1.274       .  A
C708        O717   1.259       .  A
C709        O711   1.257       .  A
C709        C821   1.440       .  S
O712        C715   1.277   1_655  A
O712      Tb1344   2.366   1_556  S
O713        C714   1.276       .  A
C714       O1571   1.274   1_455  A
C714        C830   1.480       .  S
C715        C825   1.478   1_455  S
C716        O718   1.262       .  A
C716        C845   1.434       .  S
O720      Tb1560   2.336   1_455  S
C721        O736   1.259       .  A
C721        O723   1.262       .  A
C721        C841   1.433       .  S
Tb722       O744   2.364       .  S
Tb722      O1602   2.362       .  S
Tb722      O1597   2.320       .  S
Tb722       O726   2.344       .  S
Tb722      O1610   2.342       .  S
Tb722       O743   2.351       .  S
O723       Tb727   2.360       .  S
O724        C735   1.257       .  A
C725        O730   1.263       .  A
C725        O746   1.264       .  A
C725        C801   1.433       .  S
O726        C742   1.260       .  A
Tb727       O731   2.336       .  S
Tb727       O736   2.345       .  S
Tb727       O730   2.339       .  S
Tb727       O739   2.368       .  S
O729       C1596   1.262   1_455  A
O731        C741   1.274       .  A
C732       O1593   1.262       .  A
C732        O745   1.262       .  A
C732        C840   1.427       .  S
O733        C740   1.271   1_655  A
O733      Tb1586   2.320       .  S
C734        O743   1.259       .  A
C735        O737   1.261       .  A
C735        C809   1.431       .  S
O738        C741   1.276   1_655  A
O738      Tb1586   2.362       .  S
O739        C740   1.277       .  A
C740        C826   1.479       .  S
C741        C829   1.480       .  S
C742        O744   1.263       .  A
C742        C833   1.435       .  S
O746      Tb1586   2.342   1_455  S
C747        C749   1.539       .  S
C747        C751   1.529       .  S
C747        C750   1.533       .  S
C747        C793   1.470       .  S
C748        C752   1.536       .  S
C748        C754   1.527       .  S
C748        C753   1.528       .  S
C748        C800   1.467       .  S
C749        C757   1.381       .  A
C749        C752   1.406       .  A
C750        C761   1.378       .  A
C750        C753   1.393       .  A
C751        C765   1.375       .  A
C751        C754   1.389       .  A
C752        C755   1.380       .  A
C753        C759   1.372       .  A
C754        C762   1.376       .  A
C755        N756   1.354       .  A
C755        H768   1.083       .  S
N756        C757   1.355       .  A
N756        C824   1.405       .  S
C757        H758   1.083       .  S
C759        N760   1.354       .  A
C759        H769   1.083       .  S
N760        C761   1.357       .  A
N760        C816   1.399       .  S
C761        H767   1.083       .  S
C762        N763   1.356       .  A
C762        H764   1.083       .  S
N763        C765   1.354       .  A
N763        C817   1.399       .  S
C765        H766   1.083       .  S
C770        C772   1.532       .  S
C770        C774   1.531       .  S
C770        C773   1.531       .  S
C770        C797   1.466       .  S
C771        C775   1.536       .  S
C771        C777   1.537       .  S
C771        C776   1.527       .  S
C771        C796   1.468       .  S
C772        C780   1.378       .  A
C772        C775   1.405       .  A
C773        C784   1.377       .  A
C773        C776   1.390       .  A
C774        C788   1.377       .  A
C774        C777   1.393       .  A
C775        C778   1.382       .  A
C776        C782   1.373       .  A
C777        C785   1.381       .  A
C778        N779   1.353       .  A
C778        H791   1.082       .  S
N779        C780   1.349       .  A
N779        C812   1.400       .  S
C780        H781   1.083       .  S
C782        N783   1.354       .  A
C782        H792   1.083       .  S
N783        C784   1.357       .  A
N783        C804   1.400       .  S
C784        H790   1.082       .  S
C785        N786   1.359       .  A
C785        H787   1.082       .  S
N786        C788   1.357       .  A
N786        C805   1.407       .  S
C788        H789   1.083       .  S
C794        C795   1.411       .  S
C795        C796   1.205       .  T
C797        C798   1.204       .  T
C798        C799   1.409       .  S
C799        C800   1.204       .  T
C801        C802   1.204       .  T
C802        C803   1.410       .  S
C803        C804   1.204       .  T
C805        C806   1.210       .  T
C806        C807   1.420       .  S
C807        C808   1.210       .  T
C809        C810   1.204       .  T
C810        C811   1.409       .  S
C811        C812   1.204       .  T
C813        C814   1.203       .  T
C814        C815   1.408       .  S
C815        C816   1.204       .  T
C817        C818   1.204       .  T
C818        C819   1.409       .  S
C819        C820   1.203       .  T
C821        C822   1.208       .  T
C822        C823   1.417       .  S
C823        C824   1.209       .  T
C825        C826   1.349   1_655  D
C825        H827   1.087       .  S
C826        H828   1.086       .  S
C829        C830   1.347       .  D
C829        H831   1.086   1_455  S
C833        C834   1.206       .  T
C834        C835   1.413       .  S
C835        C836   1.206       .  T
C837        C838   1.201       .  T
C838        C839   1.404       .  S
C839        C840   1.201       .  T
C841        C842   1.204       .  T
C842        C843   1.410       .  S
C843        C844   1.205       .  T
C845        C846   1.205       .  T
C846        C847   1.412       .  S
C847        C848   1.206       .  T
C849        C850   1.202       .  T
C850        C851   1.407       .  S
C851        C852   1.203       .  T
C853        C854   1.205       .  T
C854        C855   1.411       .  S
C855        C856   1.205       .  T
C857        C858   1.200       .  T
C858        C859   1.403       .  S
C859        C860   1.200       .  T
C861        C862   1.198       .  T
C862        C863   1.399       .  S
C863        C864   1.198       .  T
C865        C867   1.537       .  S
C865        C869   1.531       .  S
C865        C868   1.531       .  S
C865       C1077   1.467       .  S
C866        C870   1.537       .  S
C866        C872   1.529       .  S
C866        C871   1.530       .  S
C866       C1073   1.465       .  S
C867        C875   1.379       .  A
C867       C1086   1.400       .  A
C868        C879   1.377       .  A
C868       C1087   1.392       .  A
C869        C883   1.377       .  A
C869       C1088   1.391       .  A
C870       C1083   1.397       .  A
C870        C873   1.380       .  A
C871       C1084   1.393       .  A
C871        C877   1.373       .  A
C872       C1085   1.390       .  A
C872        C880   1.376       .  A
C873        N874   1.359       .  A
C873        H886   1.082       .  S
N874       C1091   1.356       .  A
N874       C1285   1.406       .  S
C875       N1090   1.357       .  A
C875        H876   1.083       .  S
C877       N1094   1.354       .  A
C877        H887   1.083       .  S
N878       C1093   1.353       .  A
N878        C879   1.356       .  A
N878       C1068   1.398       .  S
C879        H885   1.083       .  S
C880        N881   1.355       .  A
C880        H882   1.082       .  S
N881       C1099   1.354       .  A
N881       C1064   1.399       .  S
C883       N1097   1.355       .  A
C883        H884   1.083       .  S
C888        C890   1.529       .  S
C888        C892   1.534       .  S
C888        C891   1.531       .  S
C888       C1076   1.465       .  S
C889        C893   1.532       .  S
C889        C895   1.538       .  S
C889        C894   1.530       .  S
C889       C1080   1.467       .  S
C890        C898   1.376       .  A
C890        C893   1.393       .  A
C891        C902   1.377       .  A
C891        C894   1.392       .  A
C892        C906   1.376       .  A
C892        C895   1.396       .  A
C893        C896   1.379       .  A
C894        C900   1.373       .  A
C895        C903   1.380       .  A
C896        N897   1.356       .  A
C896        H909   1.082       .  S
N897        C898   1.353       .  A
N897       C1060   1.401       .  S
C898        H899   1.083       .  S
C900        N901   1.355       .  A
C900        H910   1.083       .  S
N901        C902   1.356       .  A
N901       C1053   1.399       .  S
C902        H908   1.083       .  S
C903        N904   1.359       .  A
C903        H905   1.082       .  S
N904        C906   1.357       .  A
N904       C1052   1.406       .  S
C906        H907   1.083       .  S
C911        O926   1.260       .  A
C911        O913   1.256       .  A
C911       C1072   1.442       .  S
Tb912      O1150   2.343       .  S
Tb912      O1367   2.344   1_545  S
Tb912      O1350   2.363   1_545  S
Tb912       O923   2.342       .  S
Tb912       O916   2.364       .  S
Tb912       O933   2.346   1_545  S
O913       Tb917   2.357       .  S
O914        C925   1.263       .  A
O914      Tb1349   2.361       .  S
C915        O920   1.262       .  A
C915        O936   1.264       .  A
C915       C1029   1.434       .  S
O916       C1148   1.261       .  A
Tb917      O1346   2.366   1_545  S
Tb917      O1137   2.389   1_554  S
Tb917       O926   2.375       .  S
Tb917       O920   2.332       .  S
Tb917      O1359   2.357   1_545  S
Tb917       O929   2.400       .  S
Tb917      O1351   2.334   1_545  S
O918       C1356   1.262       .  A
O918      Tb1344   2.362       .  S
O919      Tb1349   2.337       .  S
O921        C931   1.282       .  A
O921      Tb1133   2.386       .  S
C922        O935   1.263       .  A
C922       C1065   1.430       .  S
C924       O1350   1.262       .  A
C924        O933   1.257       .  A
C924       C1468   1.433       .  S
C925        O927   1.260       .  A
C925       C1037   1.437       .  S
O927      Tb1349   2.349       .  S
O928        C931   1.271       .  A
O929        C930   1.285       .  A
C930       C1046   1.495       .  S
C931       C1041   1.488       .  S
C932       O1132   1.260       .  A
C932        O934   1.256       .  A
C932       C1061   1.430       .  S
O934      Tb1128   2.344       .  S
O935      Tb1344   2.339       .  S
C937        O952   1.256       .  A
C937        O939   1.261       .  A
C937       C1057   1.434       .  S
Tb938       O960   2.368       .  S
Tb938      O1393   2.334   1_545  S
Tb938      O1376   2.358   1_545  S
Tb938       O942   2.358       .  S
Tb938       O959   2.372   1_545  S
O939       Tb943   2.368       .  S
O940        C951   1.262       .  A
O940      Tb1375   2.359       .  S
C941        O946   1.264       .  A
C941        O962   1.261       .  A
C941       C1017   1.430       .  S
O942        C958   1.258       .  A
Tb943      O1372   2.346   1_545  S
Tb943       O947   2.339       .  S
Tb943       O952   2.345       .  S
Tb943       O946   2.342       .  S
Tb943      O1385   2.359   1_545  S
Tb943       O955   2.340       .  S
Tb943      O1377   2.342   1_545  S
O944       C1382   1.261       .  A
O944      Tb1370   2.362       .  S
O945      Tb1375   2.340       .  S
O947        C957   1.271       .  A
C948        O961   1.263       .  A
C948       C1056   1.431       .  S
O949        C956   1.283       .  A
C950       O1376   1.256       .  A
C950        O959   1.260       .  A
C950       C1456   1.439       .  S
C951        O953   1.261       .  A
C951       C1025   1.436       .  S
O953      Tb1375   2.348       .  S
O954        C957   1.283       .  A
O955        C956   1.272       .  A
C956       C1042   1.488       .  S
C957       C1045   1.495       .  S
C958        O960   1.260       .  A
C958       C1049   1.440       .  S
O961      Tb1370   2.338       .  S
C963        C965   1.529       .  S
C963        C967   1.533       .  S
C963        C966   1.531       .  S
C963       C1009   1.456   1_554  S
C964        C968   1.531       .  S
C964        C970   1.534       .  S
C964        C969   1.527       .  S
C964       C1016   1.453       .  S
C965        C973   1.376       .  A
C965        C968   1.388       .  A
C966        C977   1.377       .  A
C966        C969   1.389       .  A
C967        C981   1.378       .  A
C967        C970   1.401       .  A
C968        C971   1.379       .  A
C969        C975   1.374       .  A
C970        C978   1.381       .  A
C971        N972   1.357       .  A
C971        H984   1.082       .  S
N972        C973   1.356       .  A
N972       C1040   1.403       .  S
C973        H974   1.083   1_554  S
C975        N976   1.355       .  A
C975        H985   1.083       .  S
N976        C977   1.357       .  A
N976       C1032   1.401       .  S
C977        H983   1.082   1_554  S
C978        N979   1.354       .  A
C978        H980   1.083       .  S
N979        C981   1.352       .  A
N979       C1033   1.403       .  S
C981        H982   1.083   1_554  S
C986        C988   1.530       .  S
C986        C990   1.530       .  S
C986        C989   1.528       .  S
C986       C1013   1.453       .  S
C987        C991   1.534       .  S
C987        C993   1.534       .  S
C987        C992   1.530       .  S
C987       C1012   1.458       .  S
C988        C996   1.376       .  A
C988        C991   1.392       .  A
C989       C1000   1.376       .  A
C989        C992   1.390       .  A
C990       C1004   1.377       .  A
C990        C993   1.391       .  A
C991        C994   1.378       .  A
C992        C998   1.373       .  A
C993       C1001   1.379       .  A
C994        N995   1.357       .  A
C994       H1007   1.082       .  S
N995        C996   1.356       .  A
N995       C1028   1.403       .  S
C996        H997   1.083       .  S
C998        N999   1.355       .  A
C998       H1008   1.083       .  S
N999       C1000   1.356       .  A
N999       C1020   1.399       .  S
C1000      H1006   1.083       .  S
C1001      N1002   1.357       .  A
C1001      H1003   1.083       .  S
N1002      C1004   1.356       .  A
N1002      C1021   1.404       .  S
C1004      H1005   1.083       .  S
C1009      C1226   1.198       .  T
C1010      C1225   1.200       .  T
C1010      C1011   1.402       .  S
C1011      C1012   1.200       .  T
C1013      C1014   1.196       .  T
C1014      C1015   1.397       .  S
C1015      C1016   1.197       .  T
C1017      C1018   1.203       .  T
C1018      C1019   1.408       .  S
C1019      C1020   1.203       .  T
C1021      C1022   1.208       .  T
C1022      C1023   1.415       .  S
C1023      C1024   1.208       .  T
C1024      C1382   1.438       .  S
C1025      C1026   1.206       .  T
C1026      C1027   1.414       .  S
C1027      C1028   1.207       .  T
C1029      C1030   1.205       .  T
C1030      C1031   1.411       .  S
C1031      C1032   1.205       .  T
C1033      C1034   1.206       .  T
C1034      C1035   1.413       .  S
C1035      C1036   1.206       .  T
C1036      C1356   1.436       .  S
C1037      C1038   1.207       .  T
C1038      C1039   1.414       .  S
C1039      C1040   1.207       .  T
C1041      C1042   1.343       .  D
C1041      H1043   1.087   1_545  S
C1042      H1044   1.087       .  S
C1045      C1046   1.345       .  D
C1045      H1047   1.086       .  S
C1046      H1480   1.087       .  S
H1048      C1478   1.086       .  S
C1049      C1050   1.209       .  T
C1050      C1051   1.417       .  S
C1051      C1052   1.209       .  T
C1053      C1054   1.204       .  T
C1054      C1055   1.408       .  S
C1055      C1056   1.203       .  T
C1057      C1058   1.205       .  T
C1058      C1059   1.411       .  S
C1059      C1060   1.205       .  T
C1061      C1062   1.203       .  T
C1062      C1063   1.408       .  S
C1063      C1064   1.203       .  T
C1065      C1066   1.203       .  T
C1066      C1067   1.407       .  S
C1067      C1068   1.202       .  T
C1069      N1090   1.407       .  S
C1069      C1070   1.210       .  T
C1070      C1071   1.419       .  S
C1071      C1072   1.210       .  T
C1073      C1074   1.204       .  T
C1074      C1075   1.409       .  S
C1075      C1076   1.204       .  T
C1077      C1078   1.205       .  T
C1078      C1079   1.411       .  S
C1079      C1080   1.205       .  T
C1081      C1083   1.534       .  S
C1081      C1085   1.528       .  S
C1081      C1084   1.533       .  S
C1081      C1293   1.466       .  S
C1082      C1086   1.536   1_556  S
C1082      C1088   1.529   1_556  S
C1082      C1087   1.528   1_556  S
C1082      C1289   1.468       .  S
C1083      C1091   1.376       .  A
C1084      C1095   1.377       .  A
C1085      C1099   1.374       .  A
C1086      C1089   1.379   1_554  A
C1087      C1093   1.371       .  A
C1088      C1096   1.376       .  A
C1089      N1090   1.357   1_556  A
C1089      H1102   1.082       .  S
C1091      H1092   1.083       .  S
C1093      H1103   1.083   1_554  S
N1094      C1095   1.357       .  A
N1094      C1284   1.399       .  S
C1095      H1101   1.083       .  S
C1096      N1097   1.355       .  A
C1096      H1098   1.082   1_554  S
N1097      C1280   1.400       .  S
C1099      H1100   1.083       .  S
C1104      C1106   1.529       .  S
C1104      C1108   1.536       .  S
C1104      C1107   1.533       .  S
C1104      C1292   1.468       .  S
C1105      C1109   1.530       .  S
C1105      C1111   1.537       .  S
C1105      C1110   1.531       .  S
C1105      C1296   1.467       .  S
C1106      C1114   1.375       .  A
C1106      C1109   1.391       .  A
C1107      C1118   1.378       .  A
C1107      C1110   1.393       .  A
C1108      C1122   1.377       .  A
C1108      C1111   1.398       .  A
C1109      C1112   1.378       .  A
C1110      C1116   1.375       .  A
C1111      C1119   1.380       .  A
C1112      N1113   1.356       .  A
C1112      H1125   1.082       .  S
N1113      C1114   1.354       .  A
N1113      C1276   1.399       .  S
C1114      H1115   1.083       .  S
C1116      N1117   1.355       .  A
C1116      H1126   1.083       .  S
N1117      C1118   1.358       .  A
N1117      C1269   1.403       .  S
C1118      H1124   1.082       .  S
C1119      N1120   1.358       .  A
C1119      H1121   1.082       .  S
N1120      C1122   1.357       .  A
N1120      C1268   1.407       .  S
C1122      H1123   1.083       .  S
C1127      O1142   1.259       .  A
C1127      O1129   1.257       .  A
C1127      C1288   1.441       .  S
Tb1128     O1583   2.337   1_545  S
Tb1128     O1566   2.361   1_545  S
Tb1128     O1139   2.342       .  S
Tb1128     O1132   2.363       .  S
Tb1128     O1149   2.347   1_545  S
O1129     Tb1133   2.362       .  S
O1130      C1141   1.263       .  A
O1130     Tb1565   2.364       .  S
C1131      O1136   1.264       .  A
C1131      O1152   1.264       .  A
C1131      C1245   1.432       .  S
Tb1133     O1562   2.372   1_545  S
Tb1133     O1142   2.369       .  S
Tb1133     O1136   2.338       .  S
Tb1133     O1575   2.355   1_545  S
Tb1133     O1145   2.380       .  S
Tb1133     O1567   2.336   1_545  S
O1134      C1572   1.262       .  A
O1134     Tb1560   2.362       .  S
O1135     Tb1565   2.340       .  S
O1137      C1147   1.282       .  A
C1138      O1151   1.263       .  A
C1138      C1281   1.430       .  S
C1140      O1566   1.260       .  A
C1140      O1149   1.257       .  A
C1140      C1684   1.431       .  S
C1141      O1143   1.260       .  A
C1141      C1253   1.439       .  S
O1143     Tb1565   2.349       .  S
O1144      C1147   1.271       .  A
O1145      C1146   1.281       .  A
C1146      C1262   1.488       .  S
C1147      C1257   1.491       .  S
C1148      O1150   1.256       .  A
C1148      C1277   1.431       .  S
O1151     Tb1560   2.335       .  S
C1153      O1168   1.256       .  A
C1153      O1155   1.261       .  A
C1153      C1273   1.429       .  S
Tb1154     O1176   2.374       .  S
Tb1154     O1609   2.333   1_545  S
Tb1154     O1592   2.362   1_545  S
Tb1154     O1158   2.356       .  S
Tb1154     O1175   2.371   1_545  S
O1155     Tb1159   2.362       .  S
O1156      C1167   1.263       .  A
O1156     Tb1591   2.362       .  S
C1157      O1162   1.265       .  A
C1157      O1178   1.263       .  A
C1157      C1233   1.434       .  S
O1158      C1174   1.256       .  A
Tb1159     O1588   2.343   1_545  S
Tb1159     O1163   2.336       .  S
Tb1159     O1168   2.341       .  S
Tb1159     O1162   2.345       .  S
Tb1159     O1601   2.362   1_545  S
Tb1159     O1171   2.338       .  S
Tb1159     O1593   2.335   1_545  S
O1160      C1598   1.262       .  A
O1160     Tb1586   2.362       .  S
O1161     Tb1591   2.337       .  S
O1163      C1173   1.271       .  A
C1164      O1177   1.266       .  A
C1164      C1272   1.437       .  S
O1165      C1172   1.283       .  A
C1166      O1592   1.257       .  A
C1166      O1175   1.260       .  A
C1166      C1672   1.443       .  S
C1167      O1169   1.261       .  A
C1167      C1241   1.438       .  S
O1169     Tb1591   2.349       .  S
O1170      C1173   1.282       .  A
O1171      C1172   1.272       .  A
C1172      C1258   1.490       .  S
C1173      C1261   1.488       .  S
C1174      O1176   1.260       .  A
C1174      C1265   1.441       .  S
O1177     Tb1586   2.349       .  S
C1179      C1181   1.531       .  S
C1179      C1183   1.531       .  S
C1179      C1182   1.531       .  S
C1179      C1225   1.459       .  S
C1180      C1184   1.535       .  S
C1180      C1186   1.534       .  S
C1180      C1185   1.530       .  S
C1180      C1232   1.461       .  S
C1181      C1189   1.377       .  A
C1181      C1184   1.393       .  A
C1182      C1193   1.376       .  A
C1182      C1185   1.391       .  A
C1183      C1197   1.376       .  A
C1183      C1186   1.392       .  A
C1184      C1187   1.379       .  A
C1185      C1191   1.375       .  A
C1186      C1194   1.378       .  A
C1187      N1188   1.358       .  A
C1187      H1200   1.082       .  S
N1188      C1189   1.356       .  A
N1188      C1256   1.405       .  S
C1189      H1190   1.083       .  S
C1191      N1192   1.355       .  A
C1191      H1201   1.083       .  S
N1192      C1193   1.356       .  A
N1192      C1248   1.400       .  S
C1193      H1199   1.082       .  S
C1194      N1195   1.357       .  A
C1194      H1196   1.083       .  S
N1195      C1197   1.356       .  A
N1195      C1249   1.403       .  S
C1197      H1198   1.083       .  S
C1202      C1204   1.534       .  S
C1202      C1206   1.533       .  S
C1202      C1205   1.533       .  S
C1202      C1229   1.461       .  S
C1203      C1207   1.531       .  S
C1203      C1209   1.532       .  S
C1203      C1208   1.529       .  S
C1203      C1228   1.457       .  S
C1204      C1212   1.379       .  A
C1204      C1207   1.391       .  A
C1205      C1216   1.378       .  A
C1205      C1208   1.391       .  A
C1206      C1220   1.378       .  A
C1206      C1209   1.393       .  A
C1207      C1210   1.378       .  A
C1208      C1214   1.374       .  A
C1209      C1217   1.379       .  A
C1210      N1211   1.357       .  A
C1210      H1223   1.082       .  S
N1211      C1212   1.357       .  A
N1211      C1244   1.405       .  S
C1212      H1213   1.083       .  S
C1214      N1215   1.355       .  A
C1214      H1224   1.083       .  S
N1215      C1216   1.357       .  A
N1215      C1236   1.401       .  S
C1216      H1222   1.082       .  S
C1217      N1218   1.357       .  A
C1217      H1219   1.083       .  S
N1218      C1220   1.356       .  A
N1218      C1237   1.404       .  S
C1220      H1221   1.083       .  S
C1226      C1227   1.400       .  S
C1227      C1228   1.199       .  T
C1229      C1230   1.201       .  T
C1230      C1231   1.405       .  S
C1231      C1232   1.201       .  T
C1233      C1234   1.205       .  T
C1234      C1235   1.411       .  S
C1235      C1236   1.205       .  T
C1237      C1238   1.207       .  T
C1238      C1239   1.415       .  S
C1239      C1240   1.207       .  T
C1240      C1598   1.437       .  S
C1241      C1242   1.208       .  T
C1242      C1243   1.416       .  S
C1243      C1244   1.208       .  T
C1245      C1246   1.204       .  T
C1246      C1247   1.409       .  S
C1247      C1248   1.204       .  T
C1249      C1250   1.207       .  T
C1250      C1251   1.414       .  S
C1251      C1252   1.207       .  T
C1252      C1572   1.436       .  S
C1253      C1254   1.208       .  T
C1254      C1255   1.416       .  S
C1255      C1256   1.208       .  T
C1257      C1258   1.344       .  D
C1257      H1259   1.087       .  S
C1258      H1260   1.087       .  S
C1261      C1262   1.344       .  D
C1261      H1263   1.087       .  S
C1262      H1696   1.086       .  S
H1264      C1694   1.086       .  S
C1265      C1266   1.209       .  T
C1266      C1267   1.418       .  S
C1267      C1268   1.210       .  T
C1269      C1270   1.207       .  T
C1270      C1271   1.414       .  S
C1271      C1272   1.207       .  T
C1273      C1274   1.203       .  T
C1274      C1275   1.408       .  S
C1275      C1276   1.203       .  T
C1277      C1278   1.204       .  T
C1278      C1279   1.409       .  S
C1279      C1280   1.204       .  T
C1281      C1282   1.203       .  T
C1282      C1283   1.408       .  S
C1283      C1284   1.204       .  T
C1285      C1286   1.210       .  T
C1286      C1287   1.418       .  S
C1287      C1288   1.209       .  T
C1289      C1290   1.205       .  T
C1290      C1291   1.411       .  S
C1291      C1292   1.205       .  T
C1293      C1294   1.205       .  T
C1294      C1295   1.410       .  S
C1295      C1296   1.205       .  T
C1297      C1299   1.531       .  S
C1297      C1301   1.530       .  S
C1297      C1300   1.530       .  S
C1297      C1509   1.458       .  S
C1298      C1302   1.530       .  S
C1298      C1304   1.534       .  S
C1298      C1303   1.527       .  S
C1298      C1505   1.457       .  S
C1299      C1307   1.376       .  A
C1299      C1518   1.394       .  A
C1300      C1311   1.377       .  A
C1300      C1519   1.390       .  A
C1301      C1315   1.377       .  A
C1301      C1520   1.392       .  A
C1302      C1515   1.389       .  A
C1302      C1305   1.376       .  A
C1303      C1516   1.389       .  A
C1303      C1309   1.373       .  A
C1304      C1517   1.403       .  A
C1304      C1312   1.380       .  A
C1305      N1306   1.356       .  A
C1305      H1318   1.082       .  S
N1306      C1523   1.355       .  A
N1306      C1717   1.401       .  S
C1307      N1522   1.355       .  A
C1307      H1308   1.083       .  S
C1309      N1526   1.354       .  A
C1309      H1319   1.083       .  S
N1310      C1525   1.354       .  A
N1310      C1311   1.356       .  A
N1310      C1500   1.400       .  S
C1311      H1317   1.082       .  S
C1312      N1313   1.353       .  A
C1312      H1314   1.083       .  S
N1313      C1531   1.352       .  A
N1313      C1496   1.401       .  S
C1315      N1529   1.355       .  A
C1315      H1316   1.083       .  S
C1320      C1322   1.530       .  S
C1320      C1324   1.535       .  S
C1320      C1323   1.529       .  S
C1320      C1508   1.457       .  S
C1321      C1325   1.532       .  S
C1321      C1327   1.534       .  S
C1321      C1326   1.529       .  S
C1321      C1512   1.458       .  S
C1322      C1330   1.377       .  A
C1322      C1325   1.389       .  A
C1323      C1334   1.376       .  A
C1323      C1326   1.390       .  A
C1324      C1338   1.381       .  A
C1324      C1327   1.402       .  A
C1325      C1328   1.380       .  A
C1326      C1332   1.374       .  A
C1327      C1335   1.380       .  A
C1328      N1329   1.358       .  A
C1328      H1341   1.082       .  S
N1329      C1330   1.356       .  A
N1329      C1492   1.405       .  S
C1330      H1331   1.083       .  S
C1332      N1333   1.355       .  A
C1332      H1342   1.083       .  S
N1333      C1334   1.356       .  A
N1333      C1485   1.399       .  S
C1334      H1340   1.083       .  S
C1335      N1336   1.353       .  A
C1335      H1337   1.083       .  S
N1336      C1338   1.353       .  A
N1336      C1484   1.403       .  S
C1338      H1339   1.083       .  S
C1343      O1358   1.259       .  A
C1343      O1345   1.262       .  A
C1343      C1504   1.436       .  S
Tb1344     O1582   2.358       .  S
Tb1344     O1355   2.331       .  S
Tb1344     O1348   2.348       .  S
Tb1344     O1365   2.348       .  S
O1345     Tb1349   2.360       .  S
O1346      C1357   1.260       .  A
C1347      O1352   1.264       .  A
C1347      O1368   1.264       .  A
C1347      C1461   1.432       .  S
O1348      C1580   1.260       .  A
Tb1349     O1569   2.328   1_554  S
Tb1349     O1358   2.348       .  S
Tb1349     O1352   2.340       .  S
Tb1349     O1361   2.367       .  S
O1353      C1363   1.272       .  A
O1353     Tb1565   2.325       .  S
C1354      O1367   1.263       .  A
C1354      C1497   1.432       .  S
C1356      O1365   1.259       .  A
C1357      O1359   1.257       .  A
C1357      C1469   1.438       .  S
O1360      C1363   1.277       .  A
O1361      C1362   1.277       .  A
C1362      C1478   1.482       .  S
C1363      C1473   1.478       .  S
C1364      O1564   1.260       .  A
C1364      O1366   1.262       .  A
C1364      C1493   1.433       .  S
O1366     Tb1560   2.357       .  S
C1369      O1384   1.260       .  A
C1369      O1371   1.263       .  A
C1369      C1489   1.439       .  S
Tb1370     O1392   2.356       .  S
Tb1370     O1374   2.347       .  S
Tb1370     O1391   2.356       .  S
O1371     Tb1375   2.365       .  S
O1372      C1383   1.257       .  A
C1373      O1378   1.262       .  A
C1373      O1394   1.264       .  A
C1373      C1449   1.430       .  S
O1374      C1390   1.260       .  A
Tb1375     O1379   2.335       .  S
Tb1375     O1384   2.350       .  S
Tb1375     O1378   2.333       .  S
Tb1375     O1387   2.362       .  S
O1379      C1389   1.274       .  A
C1380      O1393   1.263       .  A
C1380      C1488   1.431       .  S
O1381      C1388   1.272       .  A
C1382      O1391   1.260       .  A
C1383      O1385   1.260       .  A
C1383      C1457   1.431       .  S
O1386      C1389   1.277       .  A
O1387      C1388   1.276       .  A
C1388      C1474   1.478       .  S
C1389      C1477   1.483       .  S
C1390      O1392   1.262       .  A
C1390      C1481   1.434       .  S
C1395      C1397   1.538       .  S
C1395      C1399   1.529       .  S
C1395      C1398   1.533       .  S
C1395      C1441   1.467   1_554  S
C1396      C1400   1.535       .  S
C1396      C1402   1.528       .  S
C1396      C1401   1.529       .  S
C1396      C1448   1.461       .  S
C1397      C1405   1.379       .  A
C1397      C1400   1.403       .  A
C1398      C1409   1.377       .  A
C1398      C1401   1.392       .  A
C1399      C1413   1.376       .  A
C1399      C1402   1.388       .  A
C1400      C1403   1.380       .  A
C1401      C1407   1.374       .  A
C1402      C1410   1.377       .  A
C1403      N1404   1.355       .  A
C1403      H1416   1.083       .  S
N1404      C1405   1.355       .  A
N1404      C1472   1.404       .  S
C1405      H1406   1.083   1_554  S
C1407      N1408   1.355       .  A
C1407      H1417   1.083       .  S
N1408      C1409   1.357       .  A
N1408      C1464   1.401       .  S
C1409      H1415   1.082   1_554  S
C1410      N1411   1.356       .  A
C1410      H1412   1.083       .  S
N1411      C1413   1.355       .  A
N1411      C1465   1.401       .  S
C1413      H1414   1.083   1_554  S
C1418      C1420   1.529       .  S
C1418      C1422   1.529       .  S
C1418      C1421   1.530       .  S
C1418      C1445   1.461       .  S
C1419      C1423   1.534       .  S
C1419      C1425   1.536       .  S
C1419      C1424   1.529       .  S
C1419      C1444   1.469       .  S
C1420      C1428   1.378       .  A
C1420      C1423   1.401       .  A
C1421      C1432   1.377       .  A
C1421      C1424   1.392       .  A
C1422      C1436   1.375       .  A
C1422      C1425   1.393       .  A
C1423      C1426   1.379       .  A
C1424      C1430   1.373       .  A
C1425      C1433   1.379       .  A
C1426      N1427   1.353       .  A
C1426      H1439   1.082       .  S
N1427      C1428   1.350       .  A
N1427      C1460   1.399       .  S
C1428      H1429   1.083       .  S
C1430      N1431   1.354       .  A
C1430      H1440   1.083       .  S
N1431      C1432   1.356       .  A
N1431      C1452   1.399       .  S
C1432      H1438   1.083       .  S
C1433      N1434   1.358       .  A
C1433      H1435   1.082       .  S
N1434      C1436   1.356       .  A
N1434      C1453   1.404       .  S
C1436      H1437   1.083       .  S
C1441      C1658   1.205       .  T
C1442      C1657   1.206       .  T
C1442      C1443   1.413       .  S
C1443      C1444   1.206       .  T
C1445      C1446   1.201       .  T
C1446      C1447   1.405       .  S
C1447      C1448   1.201       .  T
C1449      C1450   1.203       .  T
C1450      C1451   1.408       .  S
C1451      C1452   1.203       .  T
C1453      C1454   1.208       .  T
C1454      C1455   1.416       .  S
C1455      C1456   1.208       .  T
C1457      C1458   1.203       .  T
C1458      C1459   1.408       .  S
C1459      C1460   1.203       .  T
C1461      C1462   1.204       .  T
C1462      C1463   1.410       .  S
C1463      C1464   1.205       .  T
C1465      C1466   1.205       .  T
C1466      C1467   1.411       .  S
C1467      C1468   1.205       .  T
C1469      C1470   1.207       .  T
C1470      C1471   1.415       .  S
C1471      C1472   1.208       .  T
C1473      C1474   1.348       .  D
C1473      H1475   1.086       .  S
C1474      H1476   1.087       .  S
C1477      C1478   1.348       .  D
C1477      H1479   1.086       .  S
C1481      C1482   1.206       .  T
C1482      C1483   1.412       .  S
C1483      C1484   1.206       .  T
C1485      C1486   1.203       .  T
C1486      C1487   1.408       .  S
C1487      C1488   1.203       .  T
C1489      C1490   1.208       .  T
C1490      C1491   1.416       .  S
C1491      C1492   1.208       .  T
C1493      C1494   1.205       .  T
C1494      C1495   1.411       .  S
C1495      C1496   1.205       .  T
C1497      C1498   1.204       .  T
C1498      C1499   1.409       .  S
C1499      C1500   1.204       .  T
C1501      N1522   1.403       .  S
C1501      C1502   1.207       .  T
C1502      C1503   1.413       .  S
C1503      C1504   1.206       .  T
C1505      C1506   1.199       .  T
C1506      C1507   1.401       .  S
C1507      C1508   1.199       .  T
C1509      C1510   1.200       .  T
C1510      C1511   1.402       .  S
C1511      C1512   1.200       .  T
C1513      C1515   1.528       .  S
C1513      C1517   1.533       .  S
C1513      C1516   1.528       .  S
C1513      C1725   1.455       .  S
C1514      C1518   1.534   1_556  S
C1514      C1520   1.532   1_556  S
C1514      C1519   1.528   1_556  S
C1514      C1721   1.459       .  S
C1515      C1523   1.376       .  A
C1516      C1527   1.376       .  A
C1517      C1531   1.378       .  A
C1518      C1521   1.379       .  A
C1519      C1525   1.373       .  A
C1520      C1528   1.378       .  A
C1521      N1522   1.357       .  A
C1521      H1534   1.083   1_554  S
C1523      H1524   1.083       .  S
C1525      H1535   1.083   1_554  S
N1526      C1527   1.356       .  A
N1526      C1716   1.398       .  S
C1527      H1533   1.083       .  S
C1528      N1529   1.356       .  A
C1528      H1530   1.082   1_554  S
N1529      C1712   1.402       .  S
C1531      H1532   1.083       .  S
C1536      C1538   1.530       .  S
C1536      C1540   1.533       .  S
C1536      C1539   1.529       .  S
C1536      C1724   1.459       .  S
C1537      C1541   1.530       .  S
C1537      C1543   1.531       .  S
C1537      C1542   1.526       .  S
C1537      C1728   1.456       .  S
C1538      C1546   1.375       .  A
C1538      C1541   1.392       .  A
C1539      C1550   1.375       .  A
C1539      C1542   1.390       .  A
C1540      C1554   1.378       .  A
C1540      C1543   1.395       .  A
C1541      C1544   1.377       .  A
C1542      C1548   1.372       .  A
C1543      C1551   1.377       .  A
C1544      N1545   1.356       .  A
C1544      H1557   1.083       .  S
N1545      C1546   1.355       .  A
N1545      C1708   1.400       .  S
C1546      H1547   1.083       .  S
C1548      N1549   1.353       .  A
C1548      H1558   1.083       .  S
N1549      C1550   1.355       .  A
N1549      C1701   1.396       .  S
C1550      H1556   1.083       .  S
C1551      N1552   1.355       .  A
C1551      H1553   1.082       .  S
N1552      C1554   1.356       .  A
N1552      C1700   1.403       .  S
C1554      H1555   1.083       .  S
C1559      O1574   1.260       .  A
C1559      O1561   1.261       .  A
C1559      C1720   1.434       .  S
Tb1560     O1571   2.332       .  S
Tb1560     O1564   2.345       .  S
Tb1560     O1581   2.350       .  S
O1561     Tb1565   2.356       .  S
O1562      C1573   1.260       .  A
C1563      O1568   1.264       .  A
C1563      O1584   1.263       .  A
C1563      C1677   1.431       .  S
Tb1565     O1574   2.350       .  S
Tb1565     O1568   2.341       .  S
Tb1565     O1577   2.363       .  S
O1569      C1579   1.273       .  A
C1570      O1583   1.263       .  A
C1570      C1713   1.429       .  S
C1572      O1581   1.259       .  A
C1573      O1575   1.257       .  A
C1573      C1685   1.440       .  S
O1576      C1579   1.277       .  A
O1577      C1578   1.276       .  A
C1578      C1694   1.480       .  S
C1579      C1689   1.478       .  S
C1580      O1582   1.262       .  A
C1580      C1709   1.434       .  S
C1585      O1600   1.259       .  A
C1585      O1587   1.262       .  A
C1585      C1705   1.433       .  S
Tb1586     O1608   2.364       .  S
Tb1586     O1590   2.344       .  S
Tb1586     O1607   2.351       .  S
O1587     Tb1591   2.360       .  S
O1588      C1599   1.257       .  A
C1589      O1594   1.263       .  A
C1589      O1610   1.264       .  A
C1589      C1665   1.433       .  S
O1590      C1606   1.260       .  A
Tb1591     O1595   2.336       .  S
Tb1591     O1600   2.345       .  S
Tb1591     O1594   2.339       .  S
Tb1591     O1603   2.368       .  S
O1595      C1605   1.274       .  A
C1596      O1609   1.262       .  A
C1596      C1704   1.427       .  S
O1597      C1604   1.271       .  A
C1598      O1607   1.259       .  A
C1599      O1601   1.261       .  A
C1599      C1673   1.431       .  S
O1602      C1605   1.276       .  A
O1603      C1604   1.277       .  A
C1604      C1690   1.479       .  S
C1605      C1693   1.480       .  S
C1606      O1608   1.263       .  A
C1606      C1697   1.435       .  S
C1611      C1613   1.539       .  S
C1611      C1615   1.529       .  S
C1611      C1614   1.533       .  S
C1611      C1657   1.470       .  S
C1612      C1616   1.536       .  S
C1612      C1618   1.527       .  S
C1612      C1617   1.528       .  S
C1612      C1664   1.467       .  S
C1613      C1621   1.381       .  A
C1613      C1616   1.406       .  A
C1614      C1625   1.378       .  A
C1614      C1617   1.393       .  A
C1615      C1629   1.375       .  A
C1615      C1618   1.389       .  A
C1616      C1619   1.380       .  A
C1617      C1623   1.372       .  A
C1618      C1626   1.376       .  A
C1619      N1620   1.354       .  A
C1619      H1632   1.083       .  S
N1620      C1621   1.355       .  A
N1620      C1688   1.405       .  S
C1621      H1622   1.083       .  S
C1623      N1624   1.354       .  A
C1623      H1633   1.083       .  S
N1624      C1625   1.357       .  A
N1624      C1680   1.399       .  S
C1625      H1631   1.083       .  S
C1626      N1627   1.356       .  A
C1626      H1628   1.083       .  S
N1627      C1629   1.354       .  A
N1627      C1681   1.399       .  S
C1629      H1630   1.083       .  S
C1634      C1636   1.532       .  S
C1634      C1638   1.531       .  S
C1634      C1637   1.531       .  S
C1634      C1661   1.466       .  S
C1635      C1639   1.536       .  S
C1635      C1641   1.537       .  S
C1635      C1640   1.527       .  S
C1635      C1660   1.468       .  S
C1636      C1644   1.378       .  A
C1636      C1639   1.405       .  A
C1637      C1648   1.377       .  A
C1637      C1640   1.390       .  A
C1638      C1652   1.377       .  A
C1638      C1641   1.393       .  A
C1639      C1642   1.382       .  A
C1640      C1646   1.373       .  A
C1641      C1649   1.381       .  A
C1642      N1643   1.353       .  A
C1642      H1655   1.082       .  S
N1643      C1644   1.349       .  A
N1643      C1676   1.400       .  S
C1644      H1645   1.083       .  S
C1646      N1647   1.354       .  A
C1646      H1656   1.083       .  S
N1647      C1648   1.357       .  A
N1647      C1668   1.400       .  S
C1648      H1654   1.082       .  S
C1649      N1650   1.359       .  A
C1649      H1651   1.082       .  S
N1650      C1652   1.357       .  A
N1650      C1669   1.407       .  S
C1652      H1653   1.083       .  S
C1658      C1659   1.411       .  S
C1659      C1660   1.205       .  T
C1661      C1662   1.204       .  T
C1662      C1663   1.409       .  S
C1663      C1664   1.204       .  T
C1665      C1666   1.204       .  T
C1666      C1667   1.410       .  S
C1667      C1668   1.204       .  T
C1669      C1670   1.210       .  T
C1670      C1671   1.420       .  S
C1671      C1672   1.210       .  T
C1673      C1674   1.203       .  T
C1674      C1675   1.409       .  S
C1675      C1676   1.204       .  T
C1677      C1678   1.203       .  T
C1678      C1679   1.408       .  S
C1679      C1680   1.204       .  T
C1681      C1682   1.204       .  T
C1682      C1683   1.409       .  S
C1683      C1684   1.203       .  T
C1685      C1686   1.208       .  T
C1686      C1687   1.417       .  S
C1687      C1688   1.209       .  T
C1689      C1690   1.349       .  D
C1689      H1691   1.087       .  S
C1690      H1692   1.086       .  S
C1693      C1694   1.347       .  D
C1693      H1695   1.086       .  S
C1697      C1698   1.206       .  T
C1698      C1699   1.413       .  S
C1699      C1700   1.206       .  T
C1701      C1702   1.201       .  T
C1702      C1703   1.404       .  S
C1703      C1704   1.201       .  T
C1705      C1706   1.204       .  T
C1706      C1707   1.410       .  S
C1707      C1708   1.205       .  T
C1709      C1710   1.205       .  T
C1710      C1711   1.412       .  S
C1711      C1712   1.206       .  T
C1713      C1714   1.202       .  T
C1714      C1715   1.407       .  S
C1715      C1716   1.203       .  T
C1717      C1718   1.205       .  T
C1718      C1719   1.411       .  S
C1719      C1720   1.205       .  T
C1721      C1722   1.200       .  T
C1722      C1723   1.403       .  S
C1723      C1724   1.200       .  T
C1725      C1726   1.198       .  T
C1726      C1727   1.399       .  S
C1727      C1728   1.198       .  T
