geometry optimzed in LAMMPS
_audit_creation_date              2020-11-30 
_audit_creation_method            'lammps2cif' 
_symmetry_space_group_name_H-M    'P1' 
_symmetry_Int_Tables_number       1 
_symmetry_cell_setting            triclinic 
loop_ 
_symmetry_equiv_pos_as_xyz 
  x,y,z 
_cell_length_a                    35.20205377 
_cell_length_b                    35.14191799574633 
_cell_length_c                    86.33029087305881 
_cell_angle_alpha                 90.0573472735395 
_cell_angle_beta                  89.98625474686303 
_cell_angle_gamma                 120.02479168586812 
loop_ 
_atom_site_label 
_atom_site_type_symbol 
_atom_site_fract_x 
_atom_site_fract_y 
_atom_site_fract_z 
_atom_site_charge 
C1          C  0.67776380  0.09193488  0.71987015     0.79500
N2          N  0.71357593  0.10969072  0.71054193    -0.78800
C3          C  0.71474873  0.08696811  0.69794149     0.82000
N4          N  0.67984071  0.04660635  0.69465898    -0.78700
C5          C  0.64366537  0.02926750  0.70382953     0.82000
N6          N  0.64314917  0.05202064  0.71641188    -0.80500
C7          C  0.79277601  0.09773318  0.66730494     0.79500
N8          N  0.82710407  0.13804913  0.67052103    -0.78800
C9          C  0.82553615  0.16246290  0.68237300     0.82000
N10         N  0.78891523  0.14580958  0.69132084    -0.78700
C11         C  0.75400261  0.10536149  0.68814445     0.82000
N12         N  0.75595839  0.08143972  0.67607738    -0.80500
C13         C  0.52287859  0.76875090  0.83249758     0.79500
N14         N  0.54046382  0.75081441  0.84201351    -0.78800
C15         C  0.56192548  0.77227903  0.85521444     0.82000
N16         N  0.56510364  0.81145265  0.85896217    -0.78700
C17         C  0.54655025  0.82880853  0.84962391     0.82000
N18         N  0.52593545  0.80738652  0.83649621    -0.80500
C19         C  0.62303804  0.75565755  0.88722027     0.79500
N20         N  0.61362000  0.71414863  0.88401965    -0.78800
C21         C  0.58841254  0.69156192  0.87181045     0.82000
N22         N  0.57230296  0.71097654  0.86241073    -0.78700
C23         C  0.58092595  0.75256998  0.86540929     0.82000
N24         N  0.60629515  0.77500343  0.87788544    -0.80500
C25         C  0.85605784  0.43636728  0.49789126     0.79500
N26         N  0.85824604  0.47468555  0.50167142    -0.78800
C27         C  0.87794453  0.49638873  0.51485179     0.82000
N28         N  0.89678252  0.47967689  0.52439304    -0.78700
C29         C  0.89451013  0.44074149  0.52080934     0.82000
N30         N  0.87366122  0.41891312  0.50759997    -0.80500
C31         C  0.95907790  0.42780835  0.55234996     0.79500
N32         N  0.94147515  0.44600879  0.54290431    -0.78800
C33         C  0.91379765  0.42167465  0.53120417     0.82000
N34         N  0.90346626  0.37909088  0.52916974    -0.78700
C35         C  0.91999046  0.36061242  0.53888609     0.82000
N36         N  0.94775873  0.38523382  0.55029227    -0.80500
C37         C  0.46628102  0.42097138  0.00447301     0.79500
N38         N  0.42856956  0.40643769  0.01260926    -0.78800
C39         C  0.42627088  0.43083411  0.02443872     0.82000
N40         N  0.46189789  0.47050566  0.02796664    -0.78700
C41         C  0.49968351  0.48561580  0.01968348     0.82000
N42         N  0.50144502  0.46049388  0.00807113    -0.80500
C43         C  0.34314894  0.41972125  0.05338215     0.79500
N44         N  0.38170583  0.43643998  0.04547863    -0.78800
C45         C  0.38487618  0.41409515  0.03305110     0.82000
N46         N  0.34942645  0.37536540  0.02857521    -0.78700
C47         C  0.31083025  0.35922531  0.03627421     0.82000
N48         N  0.30828612  0.38151985  0.04860790    -0.80500
C49         C  0.99628247  0.75809511  0.38292724     0.79500
N50         N  0.03256594  0.77776021  0.37375021    -0.78800
C51         C  0.03409019  0.75797710  0.36034476     0.82000
N52         N  0.99922974  0.71863219  0.35616439    -0.78700
C53         C  0.96264584  0.69956485  0.36508704     0.82000
N54         N  0.96149117  0.71934235  0.37839572    -0.80500
C55         C  0.11444003  0.77270772  0.32986923     0.79500
N56         N  0.07739253  0.75481721  0.33861737    -0.78800
C57         C  0.07351564  0.77818556  0.35053193     0.82000
N58         N  0.10672507  0.81968276  0.35356917    -0.78700
C59         C  0.14339053  0.83804470  0.34461011     0.82000
N60         N  0.14692057  0.81419411  0.33293619    -0.80500
C61         C  0.16855702  0.09572269  0.17206641     0.79500
N62         N  0.17090391  0.13304886  0.17739060    -0.78800
C63         C  0.19388288  0.15328121  0.19031776     0.82000
N64         N  0.21540407  0.13608369  0.19805602    -0.78700
C65         C  0.21283253  0.09812741  0.19296028     0.82000
N66         N  0.18935909  0.07802394  0.17996562    -0.80500
C67         C  0.28437493  0.08455878  0.22112407     0.79500
N68         N  0.26124932  0.10066224  0.21380865    -0.78800
C69         C  0.23645958  0.07964784  0.20115983     0.82000
N70         N  0.23448191  0.04207532  0.19592907    -0.78700
C71         C  0.25776953  0.02600998  0.20318518     0.82000
N72         N  0.28240851  0.04750819  0.21568056    -0.80500
C73         C  0.05282995  0.70336608  0.83245234     0.79500
N74         N  0.01073294  0.67187214  0.83498743    -0.78800
C75         C  0.98788890  0.67351712  0.84730136     0.82000
N76         N  0.00773599  0.70767630  0.85738735    -0.78700
C77         C  0.04999306  0.74007408  0.85493808     0.82000
N78         N  0.07261153  0.73770859  0.84248903    -0.80500
C79         C  0.06979736  0.81137366  0.88915405     0.79500
N80         N  0.10936258  0.84627009  0.88553540    -0.78800
C81         C  0.12997459  0.84769451  0.87210036     0.82000
N82         N  0.11081675  0.81290162  0.86222379    -0.78700
C83         C  0.07094884  0.77753473  0.86569439     0.82000
N84         N  0.05026151  0.77711516  0.87909969    -0.80500
C85         C  0.72802933  0.64809766  0.66625315     0.79500
N86         N  0.74707161  0.63215069  0.67598233    -0.78800
C87         C  0.72377207  0.60558099  0.68801795     0.82000
N88         N  0.68108803  0.59448009  0.69011721    -0.78700
C89         C  0.66163638  0.60949317  0.68015879     0.82000
N90         N  0.68545207  0.63645376  0.66840396    -0.80500
C91         C  0.74252226  0.54892611  0.72093512     0.79500
N92         N  0.72329911  0.56551952  0.71152259    -0.78800
C93         C  0.74448714  0.58817595  0.69846340     0.82000
N94         N  0.78462922  0.59371270  0.69480886    -0.78700
C95         C  0.80325923  0.57627948  0.70402316     0.82000
N96         N  0.78204363  0.55431478  0.71695036    -0.80500
C97         C  0.39568308  0.36609679  0.50196649     0.79500
N98         N  0.35666805  0.33080504  0.50585242    -0.78800
C99         C  0.33461344  0.33154755  0.51861958     0.82000
N100        N  0.35150605  0.36857834  0.52741611    -0.78700
C101        C  0.39082531  0.40413817  0.52363805     0.82000
N102        N  0.41290555  0.40271636  0.51091811    -0.80500
C103        C  0.40134887  0.48587048  0.55298196     0.79500
N104        N  0.38562230  0.44743726  0.54506190    -0.78800
C105        C  0.40848342  0.44481027  0.53273574     0.82000
N106        N  0.44723270  0.48055530  0.52848626    -0.78700
C107        C  0.46294887  0.51890450  0.53641037     0.82000
N108        N  0.43973519  0.52095540  0.54852452    -0.80500
C109        C  0.39603786  0.98019306  0.00002443     0.79500
N110        N  0.35790221  0.97754000  0.00445005    -0.78800
C111        C  0.33394478  0.95176938  0.01640294     0.82000
N112        N  0.34900778  0.92842936  0.02426553    -0.78700
C113        C  0.38749568  0.93078953  0.02004035     0.82000
N114        N  0.41080566  0.95647831  0.00780027    -0.80500
C115        C  0.39863921  0.86183969  0.05025607     0.79500
N116        N  0.38189904  0.88221991  0.04153273    -0.78800
C117        C  0.40460658  0.90691829  0.02903759     0.82000
N118        N  0.44414655  0.91105047  0.02530667    -0.78700
C119        C  0.46071131  0.89023180  0.03386357     0.82000
N120        N  0.43780355  0.86605830  0.04627028    -0.80500
C121        C  0.06591206  0.19871038  0.38408944     0.79500
N122        N  0.04885678  0.21982092  0.37603384    -0.78800
C123        C  0.07067221  0.24498013  0.36357358     0.82000
N124        N  0.10979446  0.24910017  0.35923689    -0.78700
C125        C  0.12628326  0.22708700  0.36709068     0.82000
N126        N  0.10428623  0.20225957  0.37946176    -0.80500
C127        C  0.06025002  0.31948004  0.33588762     0.79500
N128        N  0.02053835  0.31355670  0.33992612    -0.78800
C129        C  0.99636871  0.28552135  0.35136151     0.82000
N130        N  0.01253416  0.26288460  0.35901176    -0.78700
C131        C  0.05267631  0.26868132  0.35515096     0.82000
N132        N  0.07627578  0.29672826  0.34350457    -0.80500
C133        C  0.72857850  0.14813292  0.22019733     0.79500
N134        N  0.71177034  0.11109594  0.21141978    -0.78800
C135        C  0.73629243  0.10769831  0.19986759     0.82000
N136        N  0.77788641  0.14118053  0.19729176    -0.78700
C137        C  0.79514484  0.17775165  0.20630571     0.82000
N138        N  0.77016823  0.18093652  0.21759807    -0.80500
C139        C  0.72307915  0.03081703  0.16823423     0.79500
N140        N  0.73986340  0.06743065  0.17723298    -0.78800
C141        C  0.71807506  0.06803048  0.19019880     0.82000
N142        N  0.67940942  0.03182314  0.19415001    -0.78700
C143        C  0.66321184  0.99482868  0.18538548     0.82000
N144        N  0.68514949  0.99474774  0.17253523    -0.80500
C145        C  0.51662996  0.70017705  0.33094216     0.79500
N146        N  0.53534396  0.73763882  0.33954817    -0.78800
C147        C  0.56101673  0.74163283  0.35198256     0.82000
N148        N  0.56821707  0.70809542  0.35568011    -0.78700
C149        C  0.55031704  0.67101669  0.34689718     0.82000
N150        N  0.52451833  0.66736871  0.33469042    -0.80500
C151        C  0.62096077  0.82227263  0.38332740     0.79500
N152        N  0.60326136  0.78491678  0.37463741    -0.78800
C153        C  0.58081768  0.78207691  0.36137552     0.82000
N154        N  0.57668242  0.81691100  0.35678287    -0.78700
C155        C  0.59536098  0.85452727  0.36525086     0.82000
N156        N  0.61698749  0.85668606  0.37847028    -0.80500
C157        C  0.28945226  0.15473580  0.71670396     0.79500
N158        N  0.27101007  0.11800485  0.70779419    -0.78800
C159        C  0.24755462  0.11592439  0.69494365     0.82000
N160        N  0.24254660  0.15079284  0.69104499    -0.78700
C161        C  0.26170362  0.18785364  0.69985261     0.82000
N162        N  0.28469119  0.18915043  0.71256661    -0.80500
C163        C  0.17671091  0.03217123  0.66615376     0.79500
N164        N  0.19959789  0.07123809  0.67367518    -0.78800
C165        C  0.22541122  0.07496243  0.68599907     0.82000
N166        N  0.22852190  0.03962773  0.69068061    -0.78700
C167        C  0.20560764  0.00058305  0.68321281     0.82000
N168        N  0.17990841  0.99729300  0.67105387    -0.80500
C169        C  0.45344776  0.97749284  0.50128182     0.79500
N170        N  0.41813338  0.96166483  0.51081062    -0.78800
C171        C  0.41766206  0.94141613  0.52430906     0.82000
N172        N  0.45313628  0.93768716  0.52838323    -0.78700
C173        C  0.48906379  0.95465307  0.51903160     0.82000
N174        N  0.48857450  0.97399197  0.50552262    -0.80500
C175        C  0.33691039  0.87743633  0.55491665     0.79500
N176        N  0.37418088  0.89612164  0.54627456    -0.78800
C177        C  0.37835733  0.92281778  0.53417083     0.82000
N178        N  0.34517836  0.93090845  0.53080694    -0.78700
C179        C  0.30828147  0.91293860  0.53963451     0.82000
N180        N  0.30463789  0.88629235  0.55151777    -0.80500
C181        C  0.66813146  0.54151302  0.22071496     0.79500
N182        N  0.70519812  0.55993721  0.21201699    -0.78800
C183        C  0.70938155  0.58628832  0.19982337     0.82000
N184        N  0.67650147  0.59477338  0.19646761    -0.78700
C185        C  0.63972336  0.57713784  0.20536451     0.82000
N186        N  0.63582091  0.55043076  0.21732727    -0.80500
C187        C  0.79059893  0.64831820  0.16913422     0.79500
N188        N  0.75310117  0.62983108  0.17764656    -0.78800
C189        C  0.74966814  0.60592845  0.19051859     0.82000
N190        N  0.78399203  0.60076376  0.19491679    -0.78700
C191        C  0.82174971  0.61991147  0.18659179     0.82000
N192        N  0.82457511  0.64335213  0.17378704    -0.80500
C193        C  0.83499142  0.36108219  0.00097860     0.79500
N194        N  0.85237980  0.39708062  0.01030276    -0.78800
C195        C  0.88075140  0.40155243  0.02183014     0.82000
N196        N  0.89193263  0.37000896  0.02392918    -0.78700
C197        C  0.87524888  0.33429383  0.01448731     0.82000
N198        N  0.84672528  0.33011949  0.00315402    -0.80500
C199        C  0.93785451  0.47617901  0.05473812     0.79500
N200        N  0.92742275  0.50785282  0.05226279    -0.78800
C201        C  0.90315013  0.50638969  0.03990037     0.82000
N202        N  0.88854395  0.47215356  0.02983773    -0.78700
C203        C  0.89828566  0.43966195  0.03227599     0.82000
N204        N  0.92334181  0.44197412  0.04467160    -0.80500
C205        C  0.11316782  0.30073134  0.83249156     0.79500
N206        N  0.07836729  0.28522609  0.84232930    -0.78800
C207        C  0.07681211  0.26127466  0.85502284     0.82000
N208        N  0.11047717  0.25351306  0.85791168    -0.78700
C209        C  0.14524596  0.26915502  0.84808656     0.82000
N210        N  0.14594252  0.29238992  0.83551806    -0.80500
C211        C  0.99981390  0.19757564  0.88661287     0.79500
N212        N  0.96607166  0.20455158  0.88351703    -0.78800
C213        C  0.96764677  0.23015299  0.87152649     0.82000
N214        N  0.00384147  0.24883535  0.86230695    -0.78700
C215        C  0.03813325  0.24217033  0.86525195     0.82000
N216        N  0.03606617  0.21667884  0.87747470    -0.80500
O217        O  0.56903641  0.18787252  0.81886535    -0.87200
O218        O  0.67140030  0.38935008  0.87082011    -0.87400
O219        O  0.63652813  0.33935729  0.81964341    -0.89000
O220        O  0.69366515  0.28167897  0.84867629    -0.87800
O221        O  0.66894009  0.23561239  0.86970544    -0.87400
O222        O  0.57336452  0.34320529  0.81955831    -0.88800
O223        O  0.69286934  0.36683718  0.84923797    -0.87200
O224        O  0.63531307  0.25192128  0.81936219    -0.86800
Zr225      Zr  0.63434969  0.29471327  0.84142503     2.84300
O226        O  0.63388360  0.29388412  0.86850396    -1.08800
O227        O  0.56261251  0.26024333  0.83183300    -1.09500
C228        C  0.60785624  0.21409201  0.81351724     1.05900
C229        C  0.69912949  0.39489254  0.86001545     1.05900
C230        C  0.61132850  0.35284054  0.81404511     1.08800
C231        C  0.69795691  0.25829507  0.85930158     1.06600
H232        H  0.61503797  0.36215818  0.84691093     0.32200
O233        O  0.59940988  0.33208123  0.85045253    -1.29700
H234        H  0.61153646  0.20679365  0.84607570     0.31800
O235        O  0.59673492  0.22182413  0.84985581    -1.31400
O236        O  0.55314678  0.32941542  0.89929962    -0.87200
O237        O  0.45010295  0.12905450  0.84691900    -0.88700
O238        O  0.54243145  0.37032146  0.84874749    -0.87300
O239        O  0.63975886  0.26399933  0.89904572    -0.87300
O240        O  0.58204678  0.14851297  0.86910057    -0.87000
O241        O  0.48736592  0.25627442  0.81806013    -0.86800
O242        O  0.43103671  0.23868650  0.86924205    -0.87200
O243        O  0.48597164  0.17599108  0.89777877    -0.86700
O244        O  0.45426837  0.28304286  0.84775309    -0.87700
O245        O  0.55043653  0.17466753  0.89807206    -0.86900
O246        O  0.58565521  0.39013469  0.87052140    -0.87300
O247        O  0.48420807  0.18946847  0.81797855    -0.87000
O248        O  0.53864088  0.12831416  0.84739628    -0.86700
O249        O  0.64064322  0.32972944  0.89967679    -0.87100
O250        O  0.48762489  0.26454054  0.89930336    -0.87400
O251        O  0.43061192  0.15120506  0.86906717    -0.88700
Zr252      Zr  0.59800627  0.33039779  0.87756276     2.83100
Zr253      Zr  0.52458706  0.18742115  0.84052485     2.83500
Zr254      Zr  0.52762501  0.29753058  0.84093839     2.84100
Zr255      Zr  0.59590451  0.22099504  0.87692590     2.83400
Zr256      Zr  0.48886017  0.22349417  0.87666308     2.84200
O257        O  0.52376141  0.18608216  0.86760523    -1.09300
O258        O  0.52611804  0.29645074  0.86810083    -1.08800
C259        C  0.51504984  0.30249237  0.90508760     1.05900
C260        C  0.42328499  0.12336891  0.85810108     1.08500
C261        C  0.56469022  0.39736950  0.85972536     1.06100
C262        C  0.65125791  0.30202074  0.90505859     1.06400
C263        C  0.56051676  0.12153723  0.85800424     1.06000
C264        C  0.47555350  0.21810636  0.81214565     1.05500
C265        C  0.42574629  0.26086263  0.85837678     1.06000
C266        C  0.51186471  0.16327685  0.90339102     1.05500
H267        H  0.45971207  0.21029894  0.84557830     0.32200
O268        O  0.48934907  0.22459307  0.84952473    -1.30400
H269        H  0.56001867  0.25691568  0.89742548     0.32200
O270        O  0.56053909  0.25769598  0.88624605    -1.31800
O271        O  0.81817326  0.85291429  0.98960375    -0.87200
O272        O  0.92613795  0.06082188  0.03881151    -0.87400
O273        O  0.79126041  0.94944892  0.01713710    -0.89000
O274        O  0.90905954  0.00741892  0.98915397    -0.87800
O275        O  0.97398619  0.00697696  0.98872912    -0.87400
O276        O  0.76991929  0.90644192  0.03893806    -0.88800
O277        O  0.88056300  0.03638535  0.01765284    -0.87200
O278        O  0.82030487  0.91927497  0.98863428    -0.86800
Zr279      Zr  0.86431539  0.96265045  0.01056044     2.84300
O280        O  0.93669002  0.99938695  0.01951725    -1.08800
O281        O  0.82744108  0.89015815  0.01960718    -1.09500
C282        C  0.80750938  0.88003308  0.98362873     1.05900
C283        C  0.90357480  0.06560243  0.02797550     1.05900
C284        C  0.76354977  0.92782180  0.02801853     1.08800
C285        C  0.94721609  0.01895060  0.98342176     1.06600
H286        H  0.84917870  0.97906720  0.04123205     0.32200
O287        O  0.86395625  0.96382066  0.03763994    -1.29700
H288        H  0.90054969  0.92592682  0.99028760     0.31800
O289        O  0.90050303  0.92630742  0.00147251    -1.31400
O290        O  0.97733085  0.99841242  0.06909692    -0.87200
O291        O  0.87740889  0.79495379  0.01833060    -0.88700
O292        O  0.82939075  0.93613593  0.06857250    -0.87300
O293        O  0.03199359  0.03563782  0.01767008    -0.87300
O294        O  0.97383508  0.91646532  0.98993088    -0.87000
O295        O  0.76926269  0.81666385  0.04035061    -0.86800
O296        O  0.89274972  0.85101468  0.06950258    -0.87200
O297        O  0.01029943  0.90565537  0.04006671    -0.86700
O298        O  0.82659520  0.84917316  0.06917258    -0.87700
O299        O  0.03230658  0.95085736  0.01876863    -0.86900
O300        O  0.89350583  0.00256548  0.06830184    -0.87300
O301        O  0.79321573  0.79482012  0.01922175    -0.87000
O302        O  0.90850801  0.85139869  0.98956395    -0.86700
O303        O  0.01058552  0.05679697  0.03958439    -0.87100
O304        O  0.98000067  0.93447753  0.06928201    -0.87400
O305        O  0.92090781  0.81752588  0.04001547    -0.88700
Zr306      Zr  0.93655310  0.99997221  0.04659262     2.83100
Zr307      Zr  0.86439944  0.85426890  0.01094995     2.83500
Zr308      Zr  0.82774008  0.89132889  0.04669222     2.84100
Zr309      Zr  0.97270873  0.96271974  0.01076883     2.83400
Zr310      Zr  0.93680464  0.89139707  0.04708748     2.84200
O311        O  0.93683784  0.89048712  0.01998181    -1.09300
O312        O  0.90019982  0.92767401  0.05574077    -1.08800
C313        C  0.98906520  0.97210606  0.07501046     1.05900
C314        C  0.89880106  0.78908358  0.02933233     1.08500
C315        C  0.85572758  0.97486652  0.07407022     1.06100
C316        C  0.03848362  0.06292737  0.02876088     1.06400
C317        C  0.94752397  0.87783453  0.98437055     1.06000
C318        C  0.76517886  0.78807457  0.03004345     1.05500
C319        C  0.85450801  0.83978290  0.07515475     1.06000
C320        C  0.03861845  0.92917259  0.02956546     1.05500
H321        H  0.84964892  0.82541267  0.04201556     0.32200
O322        O  0.86441840  0.85508626  0.03807097    -1.30400
H323        H  0.00272336  0.97864592  0.04174273     0.32200
O324        O  0.97297373  0.96366487  0.03790335    -1.31800
O325        O  0.64642003  0.33500809  0.39979488    -0.87200
O326        O  0.54341982  0.12867680  0.35009105    -0.87400
O327        O  0.55810253  0.17860964  0.40062376    -0.89000
O328        O  0.67274733  0.23740691  0.37082420    -0.87800
O329        O  0.69241863  0.27970632  0.34882207    -0.87400
O330        O  0.49205657  0.17673351  0.40110565    -0.88800
O331        O  0.58826753  0.15190986  0.37141774    -0.87200
O332        O  0.64734874  0.27026729  0.40024797    -0.86800
Zr333      Zr  0.60116826  0.22437451  0.37895808     2.84300
O334        O  0.59953602  0.22361917  0.35187929    -1.08800
O335        O  0.56453989  0.25961381  0.38849693    -1.09500
C336        C  0.65925218  0.30926637  0.40539310     1.05900
C337        C  0.56657825  0.12370589  0.36063208     1.05900
C338        C  0.51947325  0.16546676  0.40628900     1.08800
C339        C  0.69914165  0.25800098  0.35952890     1.06600
H340        H  0.51402810  0.15626750  0.37413791     0.32200
O341        O  0.52836332  0.18617798  0.37042465    -1.29700
H342        H  0.66657199  0.31203057  0.37283054     0.31800
O343        O  0.63638778  0.29645615  0.36943207    -1.31400
O344        O  0.47917117  0.18355518  0.32266700    -0.87200
O345        O  0.58312103  0.38899396  0.37220471    -0.88700
O346        O  0.43217114  0.14872882  0.37252026    -0.87300
O347        O  0.63360667  0.24931469  0.32110962    -0.87300
O348        O  0.69268171  0.36965939  0.34851977    -0.87000
O349        O  0.49295091  0.26707514  0.40106055    -0.86800
O350        O  0.45112176  0.27657503  0.35089522    -0.87200
O351        O  0.56839165  0.33964552  0.32172566    -0.86700
O352        O  0.43175430  0.23409279  0.37281459    -0.87700
O353        O  0.63341573  0.33949520  0.32051633    -0.86900
O354        O  0.45480659  0.12662950  0.35114519    -0.87300
O355        O  0.55723727  0.33318979  0.40086121    -0.87000
O356        O  0.67024281  0.39107064  0.37010508    -0.86700
O357        O  0.56874396  0.18372807  0.32134079    -0.87100
O358        O  0.47903840  0.24876327  0.32195402    -0.87400
O359        O  0.53641455  0.36481441  0.35137093    -0.88700
Zr360      Zr  0.52685336  0.18595605  0.34339559     2.83100
Zr361      Zr  0.59926668  0.33143241  0.37869576     2.83500
Zr362      Zr  0.49181655  0.22168260  0.37962523     2.84100
Zr363      Zr  0.63416868  0.29539487  0.34230527     2.83400
Zr364      Zr  0.52477415  0.29332054  0.34329997     2.84200
O365        O  0.59771158  0.33108803  0.35162961    -1.09300
O366        O  0.49004648  0.22114741  0.35258008    -1.08800
C367        C  0.46684454  0.20962817  0.31699569     1.05900
C368        C  0.55884503  0.39330926  0.36197523     1.08500
C369        C  0.42656094  0.12064433  0.36180933     1.06100
C370        C  0.60696220  0.21058165  0.31570569     1.06400
C371        C  0.69788577  0.39792139  0.35910465     1.06000
C372        C  0.51911849  0.30586954  0.40649201     1.05500
C373        C  0.42414344  0.25467286  0.36194571     1.06000
C374        C  0.60630078  0.35153147  0.31560923     1.05500
H375        H  0.51106125  0.30828465  0.37419824     0.32200
O376        O  0.52631294  0.29379449  0.37033819    -1.30400
H377        H  0.56045319  0.25737671  0.32247257     0.32200
O378        O  0.56127596  0.25784750  0.33365657    -1.31800
O379        O  0.36323596  0.70673376  0.68331275    -0.87200
O380        O  0.16180784  0.59945280  0.73497416    -0.87400
O381        O  0.25409648  0.72564939  0.70616764    -0.89000
O382        O  0.31307401  0.66620948  0.73446990    -0.87800
O383        O  0.31718929  0.60311647  0.73366443    -0.87400
O384        O  0.21037820  0.70228627  0.68456641    -0.88800
O385        O  0.22529744  0.66626859  0.73505412    -0.87200
O386        O  0.34096451  0.72602856  0.70546062    -0.86800
Zr387      Zr  0.26873731  0.66672118  0.71286142     2.84300
O388        O  0.23430488  0.59413247  0.72169701    -1.08800
O389        O  0.26800513  0.66768757  0.68574848    -1.09500
C390        C  0.36893348  0.73349256  0.69452894     1.05900
C391        C  0.18757974  0.63786781  0.74072741     1.05900
C392        C  0.23166609  0.73063780  0.69531563     1.08800
C393        C  0.32672783  0.64060908  0.73963436     1.06600
H394        H  0.18104527  0.64423239  0.70790715     0.32200
O395        O  0.19622110  0.62970049  0.70400681    -1.29700
H396        H  0.33650694  0.64773005  0.70681367     0.31800
O397        O  0.30645940  0.63246636  0.70326325    -1.31400
O398        O  0.10356485  0.48368988  0.70593452    -0.87200
O399        O  0.30625876  0.58887088  0.65460162    -0.88700
O400        O  0.12329984  0.61587483  0.68410637    -0.87300
O401        O  0.22936977  0.51542595  0.73422171    -0.87300
O402        O  0.34322396  0.57235370  0.70311786    -0.87000
O403        O  0.23803586  0.67621750  0.65553913    -0.86800
O404        O  0.15175116  0.52177617  0.65508409    -0.87200
O405        O  0.21232002  0.46427786  0.68276377    -0.86700
O406        O  0.15083456  0.58652741  0.65495898    -0.87700
O407        O  0.25526815  0.48594044  0.70459169    -0.86900
O408        O  0.10322169  0.57267273  0.70586188    -0.87300
O409        O  0.30362750  0.67723841  0.65452411    -0.87000
O410        O  0.36392963  0.61826521  0.68207913    -0.86700
O411        O  0.16326193  0.51350177  0.73462397    -0.87100
O412        O  0.12704522  0.46327966  0.68432334    -0.87400
O413        O  0.24213987  0.52258297  0.65451451    -0.88700
Zr414      Zr  0.16172996  0.55715628  0.71278321     2.83100
Zr415      Zr  0.30510663  0.63315224  0.67612352     2.83500
Zr416      Zr  0.19559041  0.62970645  0.67690059     2.84100
Zr417      Zr  0.27165611  0.55961647  0.71201214     2.83400
Zr418      Zr  0.19813395  0.52321022  0.67624369     2.84200
O419        O  0.27070545  0.56055795  0.68495441    -1.09300
O420        O  0.16012398  0.55707259  0.68567489    -1.08800
C421        C  0.09910665  0.45604582  0.69523547     1.05900
C422        C  0.28049312  0.55004639  0.64908382     1.08500
C423        C  0.09643439  0.59446357  0.69517075     1.06100
C424        C  0.19102949  0.50297104  0.74007499     1.06400
C425        C  0.37022674  0.59472534  0.69211707     1.06000
C426        C  0.27597643  0.68842488  0.64952497     1.05500
C427        C  0.13964567  0.54809746  0.64944079     1.06000
C428        C  0.23337572  0.45798992  0.69376504     1.05500
H429        H  0.23235797  0.59559895  0.65584166     0.32200
O430        O  0.23275426  0.59547317  0.66702675    -1.30400
H431        H  0.18466005  0.49267541  0.70702976     0.32200
O432        O  0.19902888  0.52258475  0.70332045    -1.31800
O433        O  0.22917538  0.51654470  0.15194518    -0.87200
O434        O  0.33958168  0.71869259  0.20288648    -0.87400
O435        O  0.29508040  0.66410775  0.15158977    -0.89000
O436        O  0.35535216  0.60813202  0.18084886    -0.87800
O437        O  0.33342308  0.56582675  0.20281475    -0.87400
O438        O  0.23171533  0.66751844  0.15185712    -0.88800
O439        O  0.35831747  0.69471769  0.18102896    -0.87200
O440        O  0.29567171  0.58042067  0.15185201    -0.86800
Zr441      Zr  0.29702727  0.62318266  0.17408739     2.84300
O442        O  0.29872464  0.62435323  0.20111968    -1.08800
O443        O  0.22449678  0.58829218  0.16553666    -1.09500
C444        C  0.26729437  0.54304227  0.14602090     1.05900
C445        C  0.36662371  0.72285406  0.19199177     1.05900
C446        C  0.26865582  0.67585993  0.14577809     1.08800
C447        C  0.36123248  0.58682512  0.19188330     1.06600
H448        H  0.27939016  0.69207855  0.17915705     0.32200
O449        O  0.26389750  0.66240412  0.18311185    -1.29700
H450        H  0.27442344  0.53494709  0.17958805     0.31800
O451        O  0.26039950  0.55075631  0.18336999    -1.31400
O452        O  0.22230663  0.66639120  0.23176821    -0.87200
O453        O  0.11433993  0.45892114  0.18254003    -0.88700
O454        O  0.20611900  0.70041827  0.18113514    -0.87300
O455        O  0.30818683  0.59724277  0.23167047    -0.87300
O456        O  0.24242527  0.47772724  0.20435197    -0.87000
O457        O  0.14683121  0.58224890  0.15296907    -0.86800
O458        O  0.09731014  0.57153803  0.20495936    -0.87200
O459        O  0.15477350  0.51128766  0.23279389    -0.86700
O460        O  0.11885815  0.61374978  0.18297652    -0.87700
O461        O  0.21896468  0.50950087  0.23290728    -0.86900
O462        O  0.25044045  0.72110912  0.20260925    -0.87300
O463        O  0.14355770  0.51542615  0.15298363    -0.87000
O464        O  0.19844449  0.45584946  0.18279786    -0.86700
O465        O  0.31046003  0.66362250  0.23202631    -0.87100
O466        O  0.15625780  0.60208770  0.23251170    -0.87400
O467        O  0.09531125  0.48325153  0.20425854    -0.88700
Zr468      Zr  0.26528811  0.66294324  0.21027476     2.83100
Zr469      Zr  0.18754863  0.51624277  0.17481228     2.83500
Zr470      Zr  0.19069940  0.62658275  0.17469204     2.84100
Zr471      Zr  0.26129385  0.55253757  0.21055289     2.83400
Zr472      Zr  0.15531159  0.55594187  0.21114939     2.84200
O473        O  0.18876115  0.51743428  0.20192150    -1.09300
O474        O  0.19254265  0.62789633  0.20174197    -1.08800
C475        C  0.18388468  0.64094746  0.23759105     1.05900
C476        C  0.08762481  0.45440871  0.19359284     1.08500
C477        C  0.22865055  0.72791847  0.19196136     1.06100
C478        C  0.32145822  0.63598524  0.23729645     1.06400
C479        C  0.21891492  0.44915800  0.19395475     1.06000
C480        C  0.13428920  0.54373922  0.14725945     1.05500
C481        C  0.09151525  0.59333563  0.19411269     1.06000
C482        C  0.18081974  0.49890651  0.23847754     1.05500
H483        H  0.12311586  0.53995555  0.18048379     0.32200
O484        O  0.15318482  0.55437460  0.18400186    -1.30400
H485        H  0.22841414  0.59157395  0.23117041     0.32200
O486        O  0.22784676  0.59105201  0.21998567    -1.31800
O487        O  0.89305574  0.99802253  0.56678194    -0.87200
O488        O  0.78497280  0.79748183  0.51474208    -0.87400
O489        O  0.76857750  0.91160212  0.53845454    -0.89000
O490        O  0.82426365  0.84551263  0.56500307    -0.87800
O491        O  0.88820182  0.84313762  0.56467589    -0.87400
O492        O  0.79087095  0.95542027  0.51683521    -0.88800
O493        O  0.76604582  0.81942280  0.53705375    -0.87200
O494        O  0.82666626  0.93406617  0.56694879    -0.86800
Zr495      Zr  0.82501728  0.89246971  0.54415401     2.84300
O496        O  0.85867246  0.85471872  0.53434133    -1.08800
O497        O  0.86308521  0.96541847  0.53573438    -1.09500
C498        C  0.85493661  0.97173719  0.57267483     1.05900
C499        C  0.75874025  0.79138673  0.52612490     1.05900
C500        C  0.76343789  0.93469547  0.52788103     1.08800
C501        C  0.85011499  0.83240776  0.57032103     1.06600
H502        H  0.79301908  0.88007772  0.51347955     0.32200
O503        O  0.82303073  0.89400059  0.51705222    -1.29700
H504        H  0.89807769  0.92509310  0.56413087     0.31800
O505        O  0.89762051  0.92589354  0.55295370    -1.31400
O506        O  0.89863992  0.85608072  0.48498162    -0.87200
O507        O  0.00854735  0.05722530  0.53697978    -0.88700
O508        O  0.81824541  0.92657508  0.48633749    -0.87300
O509        O  0.91393496  0.81493730  0.53501464    -0.87300
O510        O  0.97763934  0.93051662  0.56471943    -0.87000
O511        O  0.87741604  0.03984030  0.51739145    -0.86800
O512        O  0.96650244  0.00462684  0.48554656    -0.87200
O513        O  0.02635502  0.94741836  0.51356954    -0.86700
O514        O  0.90463688  0.01067845  0.48647017    -0.87700
O515        O  0.00298353  0.90101326  0.53450939    -0.86900
O516        O  0.81515800  0.85987836  0.48541321    -0.87300
O517        O  0.92102660  0.05813796  0.53899165    -0.87000
O518        O  0.97959156  0.99670359  0.56575164    -0.86700
O519        O  0.87082818  0.79650640  0.51324277    -0.87100
O520        O  0.96578151  0.91915903  0.48505658    -0.87400
O521        O  0.02697557  0.03564518  0.51447795    -0.88700
Zr522      Zr  0.85730552  0.85653320  0.50731664     2.83100
Zr523      Zr  0.93558599  0.99874354  0.54438145     2.83500
Zr524      Zr  0.86208825  0.96732729  0.50869296     2.84100
Zr525      Zr  0.93145550  0.88843533  0.54293352     2.83400
Zr526      Zr  0.96781433  0.96259511  0.50748636     2.84200
O527        O  0.96989305  0.96146636  0.53455474    -1.09300
O528        O  0.89537494  0.92929855  0.49880757    -1.08800
C529        C  0.93701757  0.88172782  0.47925483     1.05900
C530        C  0.03483604  0.06332899  0.52558890     1.08500
C531        C  0.80584909  0.88866233  0.48010668     1.06100
C532        C  0.89183825  0.78857571  0.52385609     1.06400
C533        C  0.99010709  0.96862703  0.57081374     1.06000
C534        C  0.89894997  0.06578352  0.52874402     1.05500
C535        C  0.94112457  0.01818146  0.48022105     1.06000
C536        C  0.03118791  0.92354366  0.52385548     1.05500
H537        H  0.95019102  0.03128866  0.51373458     0.32200
O538        O  0.93478814  0.00119221  0.51727977    -1.30400
H539        H  0.94401680  0.87416960  0.51173684     0.32200
O540        O  0.93007548  0.88966908  0.51587796    -1.31800
C541        C  0.00537148  0.07913486  0.94652344    -0.11500
C542        C  0.98077623  0.09914597  0.94245527     0.05600
C543        C  0.94778842  0.09530892  0.95257555    -0.10300
C544        C  0.93765216  0.06992083  0.96592248    -0.12000
C545        C  0.96066239  0.04809623  0.96969082    -0.01700
C546        C  0.99541171  0.05381606  0.96005839    -0.10900
C547        C  0.98700734  0.12191503  0.92739035     0.05600
H548        H  0.92916575  0.11146489  0.95003353     0.07500
H549        H  0.91134828  0.06710932  0.97322802     0.11000
H550        H  0.01395365  0.03765242  0.96271311     0.11300
H551        H  0.03107678  0.08163897  0.93896732     0.07600
C552        C  0.02895505  0.15044578  0.92129995    -0.11600
C553        C  0.03355334  0.17409458  0.90764505    -0.10800
C554        C  0.99627740  0.16966797  0.89998752    -0.01800
C555        C  0.95452977  0.13961501  0.90574876    -0.11900
C556        C  0.94997559  0.11589559  0.91917606    -0.10300
H557        H  0.05809132  0.15562441  0.92736226     0.07600
H558        H  0.06614228  0.19698903  0.90342814     0.11300
H559        H  0.92511820  0.13474312  0.89996397     0.11000
H560        H  0.91719392  0.09308891  0.92325822     0.07600
C561        C  0.77482351  0.21434036  0.86511597    -0.11500
C562        C  0.81601743  0.25102795  0.86181906     0.05600
C563        C  0.81796986  0.29003559  0.85674504    -0.10300
C564        C  0.77948481  0.29248930  0.85552004    -0.12000
C565        C  0.73871130  0.25614179  0.85953851    -0.01700
C566        C  0.73678452  0.21700327  0.86413681    -0.10900
C567        C  0.85631911  0.24820932  0.86435114     0.05600
H568        H  0.84922929  0.31889629  0.85417332     0.07500
H569        H  0.78170718  0.32306446  0.85192351     0.11000
H570        H  0.70565425  0.18823742  0.86696541     0.11300
H571        H  0.77195219  0.18340778  0.86858780     0.07600
C572        C  0.85858819  0.22493198  0.87718750    -0.11600
C573        C  0.89463166  0.21932726  0.87938127    -0.10800
C574        C  0.92995616  0.23729023  0.86890635    -0.01800
C575        C  0.92844254  0.26167273  0.85623585    -0.11900
C576        C  0.89192944  0.26713290  0.85398674    -0.10300
H577        H  0.83231644  0.21089949  0.88562361     0.07600
H578        H  0.89461799  0.20073898  0.88937879     0.11300
H579        H  0.95516113  0.27608022  0.84798498     0.11000
H580        H  0.89108337  0.28518128  0.84396236     0.07600
C581        C  0.11144876  0.38456359  0.80512844    -0.11500
C582        C  0.13710093  0.38348913  0.79274572     0.05600
C583        C  0.15032944  0.35184258  0.79306018    -0.10300
C584        C  0.14054235  0.32388613  0.80570882    -0.12000
C585        C  0.11677900  0.32625658  0.81838847    -0.01700
C586        C  0.10119974  0.35601280  0.81782882    -0.10900
C587        C  0.15123641  0.41557655  0.77967226     0.05600
H588        H  0.16880443  0.34891921  0.78356423     0.07500
H589        H  0.15244535  0.30079913  0.80569221     0.11000
H590        H  0.08303056  0.35866403  0.82749120     0.11300
H591        H  0.10074429  0.40856100  0.80529467     0.07600
C592        C  0.12319084  0.42949897  0.77356289    -0.11600
C593        C  0.13623612  0.45824712  0.76087983    -0.10800
C594        C  0.17769499  0.47385063  0.75396780    -0.01800
C595        C  0.20601099  0.46052987  0.76029185    -0.11900
C596        C  0.19304276  0.43198531  0.77296867    -0.10300
H597        H  0.09069891  0.41735787  0.77833448     0.07600
H598        H  0.11350478  0.46776672  0.75636938     0.11300
H599        H  0.23826294  0.47193729  0.75540095     0.11000
H600        H  0.21601674  0.42289461  0.77755834     0.07600
C601        C  0.33999212  0.29194843  0.84881075    -0.11500
C602        C  0.30262692  0.25892636  0.85638883     0.05600
C603        C  0.30636041  0.22726214  0.86510890    -0.10300
C604        C  0.34649501  0.22808340  0.86590954    -0.12000
C605        C  0.38356467  0.26056308  0.85798752    -0.01700
C606        C  0.37986691  0.29261427  0.84951727    -0.10900
C607        C  0.25985317  0.25706859  0.85448558     0.05600
H608        H  0.27803460  0.20125551  0.87095094     0.07500
H609        H  0.34825751  0.20276448  0.87247248     0.11000
H610        H  0.40785987  0.31838031  0.84344789     0.11300
H611        H  0.33835125  0.31734962  0.84225614     0.07600
C612        C  0.23111475  0.24867761  0.86703182    -0.11600
C613        C  0.19262736  0.25089115  0.86504737    -0.10800
C614        C  0.18256464  0.26153149  0.85049237    -0.01800
C615        C  0.21040654  0.26769493  0.83790676    -0.11900
C616        C  0.24833053  0.26537574  0.83986451    -0.10300
H617        H  0.23920048  0.24203858  0.87843957     0.07600
H618        H  0.17172617  0.24587853  0.87494365     0.11300
H619        H  0.20331017  0.27506261  0.82645021     0.11000
H620        H  0.26905858  0.27066255  0.82988676     0.07600
C621        C  0.06207648  0.47807456  0.11340966    -0.11500
C622        C  0.05389764  0.50932641  0.10641169     0.05600
C623        C  0.07410746  0.55216264  0.11244400    -0.10300
C624        C  0.10032520  0.56313964  0.12559011    -0.12000
C625        C  0.10738046  0.53164924  0.13300635    -0.01700
C626        C  0.08858911  0.48912274  0.12662968    -0.10900
C627        C  0.02236926  0.49731359  0.09346856     0.05600
H628        H  0.06917829  0.57720274  0.10707031     0.07500
H629        H  0.11479779  0.59639776  0.12998449     0.11000
H630        H  0.09365857  0.46417849  0.13199921     0.11300
H631        H  0.04680263  0.44479698  0.10898435     0.07600
C632        C  0.02214368  0.47167521  0.08090225    -0.11600
C633        C  0.99343262  0.46300988  0.06841039    -0.10800
C634        C  0.96489268  0.48011374  0.06835490    -0.01800
C635        C  0.96424923  0.50431668  0.08119190    -0.11900
C636        C  0.99244772  0.51263130  0.09360008    -0.10300
H637        H  0.04500122  0.45955951  0.08053180     0.07600
H638        H  0.99467478  0.44445023  0.05859524     0.11300
H639        H  0.94215184  0.51736928  0.08158424     0.11000
H640        H  0.99105241  0.53145466  0.10330532     0.07600
C641        C  0.89189608  0.60514406  0.04869301    -0.11500
C642        C  0.89025872  0.62046798  0.03383659     0.05600
C643        C  0.88807668  0.59510101  0.02086940    -0.10300
C644        C  0.88990294  0.55640245  0.02275494    -0.12000
C645        C  0.89426146  0.54282241  0.03761604    -0.01700
C646        C  0.89416992  0.56701951  0.05055019    -0.10900
C647        C  0.89310421  0.66385841  0.03209090     0.05600
H648        H  0.88688735  0.60613526  0.00926921     0.07500
H649        H  0.89009667  0.53838232  0.01259998     0.11000
H650        H  0.89682096  0.55694978  0.06216871     0.11300
H651        H  0.89229883  0.62316859  0.05893293     0.07600
C652        C  0.86769021  0.67060709  0.02107902    -0.11600
C653        C  0.86983426  0.71140655  0.02000372    -0.10800
C654        C  0.89750153  0.74626323  0.02991447    -0.01800
C655        C  0.92346512  0.73956917  0.04068947    -0.11900
C656        C  0.92140045  0.69901175  0.04172039    -0.10300
H657        H  0.84545133  0.64410040  0.01354906     0.07600
H658        H  0.84930450  0.71537969  0.01157555     0.11300
H659        H  0.94545460  0.76567453  0.04840356     0.11000
H660        H  0.94223276  0.69524727  0.05007122     0.07600
C661        C  0.88323838  0.23260333  0.00699234    -0.11500
C662        C  0.90007539  0.22728529  0.02104704     0.05600
C663        C  0.91248699  0.25966020  0.03257069    -0.10300
C664        C  0.90588518  0.29549043  0.03033671    -0.12000
C665        C  0.88674159  0.29937136  0.01655076    -0.01700
C666        C  0.87657350  0.26807613  0.00478129    -0.10900
C667        C  0.90132973  0.18629350  0.02382030     0.05600
H668        H  0.92550214  0.25627121  0.04352016     0.07500
H669        H  0.91425197  0.31918776  0.03959531     0.11000
H670        H  0.86259802  0.27045422  0.99390087     0.11300
H671        H  0.87429736  0.20865331  0.99778038     0.07600
C672        C  0.86498613  0.14588406  0.01955755    -0.11600
C673        C  0.86588073  0.10697542  0.02117930    -0.10800
C674        C  0.90299853  0.10729709  0.02723759    -0.01800
C675        C  0.93903399  0.14746402  0.03203979    -0.11900
C676        C  0.93822261  0.18678674  0.03031373    -0.10300
H677        H  0.83571476  0.14438327  0.01488161     0.07600
H678        H  0.83733680  0.07645023  0.01765405     0.11300
H679        H  0.96812994  0.14856969  0.03670566     0.11000
H680        H  0.96669634  0.21756950  0.03365896     0.07600
C681        C  0.72646801  0.30336816  0.93657802    -0.11500
C682        C  0.72703817  0.33411875  0.94714847     0.05600
C683        C  0.70420585  0.35617645  0.94338583    -0.10300
C684        C  0.68013475  0.34645056  0.92956084    -0.12000
C685        C  0.67841718  0.31443550  0.91929461    -0.01700
C686        C  0.70229951  0.29345848  0.92290286    -0.10900
C687        C  0.75080543  0.34173462  0.96209466     0.05600
H688        H  0.70398987  0.37998639  0.95130231     0.07500
H689        H  0.66199481  0.36315566  0.92710054     0.11000
H690        H  0.70233540  0.26924996  0.91513675     0.11300
H691        H  0.74473096  0.28672327  0.93891301     0.07600
C692        C  0.74885659  0.30587245  0.96998256    -0.11600
C693        C  0.77514423  0.31239096  0.98288926    -0.10800
C694        C  0.80372663  0.35494281  0.98842979    -0.01800
C695        C  0.80360289  0.39081859  0.98126553    -0.11900
C696        C  0.77740766  0.38427641  0.96814436    -0.10300
H697        H  0.72763244  0.27259713  0.96593030     0.07600
H698        H  0.77367649  0.28397065  0.98836944     0.11300
H699        H  0.82515679  0.42397743  0.98535601     0.11000
H700        H  0.77945208  0.41255214  0.96234856     0.07600
C701        C  0.89330592  0.57383060  0.19989737    -0.11500
C702        C  0.93490087  0.60772411  0.19520261     0.05600
C703        C  0.93903502  0.64704866  0.18956197    -0.10300
C704        C  0.90219502  0.65126458  0.18746052    -0.12000
C705        C  0.86029290  0.61655130  0.19117656    -0.01700
C706        C  0.85613694  0.57830657  0.19794659    -0.10900
C707        C  0.97371493  0.60178135  0.19497925     0.05600
H708        H  0.97079843  0.67423489  0.18630775     0.07500
H709        H  0.90641220  0.68147157  0.18252158     0.11000
H710        H  0.82409046  0.55113777  0.20092698     0.11300
H711        H  0.88924601  0.54319617  0.20432610     0.07600
C712        C  0.98326315  0.58202599  0.20735470    -0.11600
C713        C  0.02135145  0.57879711  0.20708345    -0.10800
C714        C  0.05040934  0.59518365  0.19440310    -0.01800
C715        C  0.04003805  0.61387605  0.18191644    -0.11900
C716        C  0.00215955  0.61695237  0.18218016    -0.10300
H717        H  0.96189820  0.57007914  0.21736149     0.07600
H718        H  0.02832420  0.56408343  0.21689226     0.11300
H719        H  0.06122847  0.62628654  0.17187687     0.11000
H720        H  0.99508306  0.63129827  0.17228270     0.07600
C721        C  0.77318299  0.71600238  0.13861927    -0.11500
C722        C  0.81049553  0.72951058  0.12926202     0.05600
C723        C  0.83922326  0.71379547  0.13261091    -0.10300
C724        C  0.83204603  0.68687374  0.14535839    -0.12000
C725        C  0.79567024  0.67450565  0.15507392    -0.01700
C726        C  0.76578517  0.68863417  0.15142085    -0.10900
C727        C  0.82047412  0.76035617  0.11614485     0.05600
H728        H  0.86751885  0.72242671  0.12536799     0.07500
H729        H  0.85539142  0.67603041  0.14763739     0.11000
H730        H  0.73737680  0.67950768  0.15865778     0.11300
H731        H  0.75044166  0.72757500  0.13631266     0.07600
C732        C  0.78727819  0.75680593  0.10616535    -0.11600
C733        C  0.79799008  0.78365938  0.09303880    -0.10800
C734        C  0.84207648  0.81405771  0.08962891    -0.01800
C735        C  0.87488828  0.81886339  0.09997330    -0.11900
C736        C  0.86419318  0.79261555  0.11312979    -0.10300
H737        H  0.75331341  0.73223810  0.10817556     0.07600
H738        H  0.77204095  0.77946566  0.08525412     0.11300
H739        H  0.90901438  0.84277824  0.09782230     0.11000
H740        H  0.89037886  0.79718499  0.12085822     0.07600
C741        C  0.69177121  0.49085655  0.25563690    -0.11500
C742        C  0.64898618  0.46013563  0.26049634     0.05600
C743        C  0.61331293  0.45453417  0.25147334    -0.10300
C744        C  0.61989493  0.48040889  0.23842413    -0.12000
C745        C  0.66238950  0.51217989  0.23386773    -0.01700
C746        C  0.69841894  0.51657029  0.24237681    -0.10900
C747        C  0.64065279  0.43470750  0.27512341     0.05600
H748        H  0.58003776  0.43027727  0.25459840     0.07500
H749        H  0.59153004  0.47569503  0.23192804     0.11000
H750        H  0.73154413  0.54089620  0.23910702     0.11300
H751        H  0.71993552  0.49599953  0.26234861     0.07600
C752        C  0.66645937  0.41624990  0.27948546    -0.11600
C753        C  0.65590713  0.38976174  0.29275352    -0.10800
C754        C  0.61931454  0.38118835  0.30191370    -0.01800
C755        C  0.59463921  0.40104231  0.29778295    -0.11900
C756        C  0.60526838  0.42751582  0.28464293    -0.10300
H757        H  0.69394419  0.42117514  0.27240180     0.07600
H758        H  0.67583342  0.37524889  0.29563571     0.11300
H759        H  0.56679178  0.39600296  0.30467583     0.11000
H760        H  0.58547212  0.44226104  0.28188007     0.07600
C761        C  0.55646861  0.59879479  0.18516396    -0.11500
C762        C  0.52814253  0.59325314  0.19756971     0.05600
C763        C  0.54006490  0.58778420  0.21257137    -0.10300
C764        C  0.57711732  0.58409952  0.21499271    -0.12000
C765        C  0.60394970  0.58675136  0.20254388    -0.01700
C766        C  0.59432592  0.59580331  0.18765677    -0.10900
C767        C  0.48498161  0.59037133  0.19509814     0.05600
H768        H  0.52005950  0.58522165  0.22248266     0.07500
H769        H  0.58432626  0.57831158  0.22666582     0.11000
H770        H  0.61474581  0.59836072  0.17787775     0.11300
H771        H  0.54835861  0.60335541  0.17347434     0.07600
C772        C  0.47955370  0.61729004  0.18434025    -0.11600
C773        C  0.43899519  0.61544992  0.18292388    -0.10800
C774        C  0.40325522  0.58677609  0.19228422    -0.01800
C775        C  0.40845445  0.55888504  0.20260101    -0.11900
C776        C  0.44859309  0.56045442  0.20390354    -0.10300
H777        H  0.50689575  0.64062455  0.17736861     0.07600
H778        H  0.43601155  0.63730571  0.17481611     0.11300
H779        H  0.38153822  0.53589888  0.20981617     0.11000
H780        H  0.45110305  0.53813435  0.21191802     0.07600
C781        C  0.27422763  0.76374325  0.61873220    -0.11500
C782        C  0.30642835  0.76695439  0.60831392     0.05600
C783        C  0.33021559  0.74581594  0.61198556    -0.10300
C784        C  0.32124314  0.72121138  0.62560011    -0.12000
C785        C  0.28799039  0.71688692  0.63569794    -0.01700
C786        C  0.26493140  0.73882432  0.63218415    -0.10900
C787        C  0.31465946  0.79232425  0.59373802     0.05600
H788        H  0.35503189  0.74740091  0.60417907     0.07500
H789        H  0.33951099  0.70460686  0.62799717     0.11000
H790        H  0.23957466  0.73675699  0.63983845     0.11300
H791        H  0.25618857  0.78068717  0.61654593     0.07600
C792        C  0.27956308  0.79234299  0.58603174    -0.11600
C793        C  0.28710291  0.81942216  0.57331105    -0.10800
C794        C  0.32988702  0.84670795  0.56772342    -0.01800
C795        C  0.36488490  0.84494704  0.57479482    -0.11900
C796        C  0.35735250  0.81808676  0.58775605    -0.10300
H797        H  0.24610289  0.77176306  0.58994632     0.07600
H798        H  0.25918495  0.81916579  0.56792864     0.11300
H799        H  0.39814279  0.86540349  0.57066665     0.11000
H800        H  0.38513512  0.81881553  0.59341964     0.07600
C801        C  0.20003570  0.90922993  0.54429424    -0.11500
C802        C  0.19433431  0.92382982  0.52983303     0.05600
C803        C  0.22845562  0.93881656  0.51888133    -0.10300
C804        C  0.26659230  0.93694601  0.52211965    -0.12000
C805        C  0.27101124  0.92008459  0.53635090    -0.01700
C806        C  0.23767979  0.90726249  0.54748915    -0.10900
C807        C  0.15220224  0.92211277  0.52642414     0.05600
H808        H  0.22499872  0.95048958  0.50766073     0.07500
H809        H  0.29181046  0.94725484  0.51333835     0.11000
H810        H  0.24022785  0.89491077  0.55869954     0.11300
H811        H  0.17503042  0.89883001  0.55316594     0.07600
C812        C  0.11266986  0.88599537  0.53154776    -0.11600
C813        C  0.07328257  0.88604565  0.53026665    -0.10800
C814        C  0.07231518  0.92196237  0.52363655    -0.01800
C815        C  0.11128574  0.95692597  0.51757138    -0.11900
C816        C  0.15101233  0.95708238  0.51901194    -0.10300
H817        H  0.11233782  0.85795568  0.53688783     0.07600
H818        H  0.04361781  0.85819161  0.53471384     0.11300
H819        H  0.11139518  0.98497993  0.51233943     0.11000
H820        H  0.18095773  0.98531728  0.51495202     0.07600
C821        C  0.48392051  0.01718326  0.46023300    -0.11500
C822        C  0.46713025  0.04581425  0.45860802     0.05600
C823        C  0.44132390  0.04799918  0.47069536    -0.10300
C824        C  0.43472307  0.02401731  0.48438960    -0.12000
C825        C  0.45446202  0.99814137  0.48630188    -0.01700
C826        C  0.47818379  0.99417722  0.47396738    -0.10900
C827        C  0.47937880  0.07533726  0.44486675     0.05600
H828        H  0.42795104  0.06975505  0.46990972     0.07500
H829        H  0.41618934  0.02748969  0.49375231     0.11000
H830        H  0.49295992  0.97366783  0.47503125     0.11300
H831        H  0.50247544  0.01322331  0.45100294     0.07600
C832        C  0.52124932  0.09236558  0.43817834    -0.11600
C833        C  0.53396613  0.12124598  0.42567270    -0.10800
C834        C  0.50544270  0.13451905  0.41956892    -0.01800
C835        C  0.46338447  0.11731809  0.42612737    -0.11900
C836        C  0.45047761  0.08801050  0.43861407    -0.10300
H837        H  0.54490048  0.08430054  0.44282580     0.07600
H838        H  0.56650871  0.13353715  0.42091260     0.11300
H839        H  0.44034396  0.12643198  0.42161669     0.11000
H840        H  0.41778739  0.07513637  0.44329585     0.07600
C841        C  0.56645748  0.91738437  0.53453236    -0.11500
C842        C  0.60633734  0.94878867  0.52772533     0.05600
C843        C  0.60760817  0.98373794  0.51944284    -0.10300
C844        C  0.56962394  0.98586937  0.51712728    -0.12000
C845        C  0.52926851  0.95349066  0.52321552    -0.01700
C846        C  0.52813605  0.91979602  0.53232830    -0.10900
C847        C  0.64603417  0.94414056  0.52811551     0.05600
H848        H  0.63799504  0.00910171  0.51441913     0.07500
H849        H  0.57179878  0.01275217  0.51031007     0.11000
H850        H  0.49744608  0.89442486  0.53715939     0.11300
H851        H  0.56451569  0.89003154  0.54096509     0.07600
C852        C  0.65924274  0.93172307  0.54165611    -0.11600
C853        C  0.69736305  0.92841655  0.54167861    -0.10800
C854        C  0.72285595  0.93752763  0.52816350    -0.01800
C855        C  0.70931700  0.94964210  0.51466451    -0.11900
C856        C  0.67136946  0.95265118  0.51462332    -0.10300
H857        H  0.64052652  0.92527837  0.55224836     0.07600
H858        H  0.70716988  0.91930039  0.55229248     0.11300
H859        H  0.72781467  0.95636324  0.50400192     0.11000
H860        H  0.66159374  0.96131403  0.50390506     0.07600
C861        C  0.24713093  0.92717924  0.69878123    -0.11500
C862        C  0.21336107  0.88551106  0.69403122     0.05600
C863        C  0.17537912  0.88207681  0.68733020    -0.10300
C864        C  0.17270765  0.91949793  0.68424826    -0.12000
C865        C  0.20742023  0.96132512  0.68815444    -0.01700
C866        C  0.24404230  0.96481013  0.69595086    -0.10900
C867        C  0.21876951  0.84621406  0.69472650     0.05600
H868        H  0.14800148  0.85043591  0.68405488     0.07500
H869        H  0.14357739  0.91565984  0.67854802     0.11000
H870        H  0.27114754  0.99670039  0.69916478     0.11300
H871        H  0.27684732  0.93103764  0.70396760     0.07600
C872        C  0.20202607  0.81524756  0.68265721    -0.11600
C873        C  0.20685245  0.77837587  0.68286949    -0.10800
C874        C  0.22891991  0.77133546  0.69510174    -0.01800
C875        C  0.24655660  0.80260621  0.70709379    -0.11900
C876        C  0.24141745  0.83968417  0.70692631    -0.10300
H877        H  0.18563765  0.81972747  0.67281029     0.07600
H878        H  0.19313932  0.75534819  0.67333801     0.11300
H879        H  0.26373010  0.79814711  0.71669616     0.11000
H880        H  0.25460384  0.86282787  0.71643329     0.07600
C881        C  0.12652776  0.05457461  0.63083185    -0.11500
C882        C  0.09538887  0.01148182  0.62638049     0.05600
C883        C  0.08930367  0.97623932  0.63570138    -0.10300
C884        C  0.11507315  0.98349152  0.64877673    -0.12000
C885        C  0.14754540  0.02624517  0.65294778    -0.01700
C886        C  0.15248230  0.06193210  0.64405596    -0.10900
C887        C  0.07009296  0.00237205  0.61181469     0.05600
H888        H  0.06478604  0.94282211  0.63276538     0.07500
H889        H  0.10977756  0.95531061  0.65554310     0.11000
H890        H  0.17721993  0.09522323  0.64702546     0.11300
H891        H  0.13178162  0.08231801  0.62381255     0.07600
C892        C  0.04987536  0.02664439  0.60770254    -0.11600
C893        C  0.02417398  0.01598612  0.59429925    -0.10800
C894        C  0.01831242  0.98089878  0.58476405    -0.01800
C895        C  0.03922318  0.95719266  0.58880406    -0.11900
C896        C  0.06489697  0.96790208  0.60214012    -0.10300
H897        H  0.05306830  0.05309989  0.61504346     0.07600
H898        H  0.00827008  0.03473113  0.59156086     0.11300
H899        H  0.03581131  0.93031728  0.58165261     0.11000
H900        H  0.08074814  0.94912106  0.60491539     0.07600
C901        C  0.21483904  0.25932143  0.68684734    -0.11500
C902        C  0.24319841  0.29891441  0.69457407     0.05600
C903        C  0.27950351  0.30237658  0.70255345    -0.10300
C904        C  0.28603360  0.26667562  0.70359917    -0.12000
C905        C  0.25671325  0.22639426  0.69657808    -0.01700
C906        C  0.22162808  0.22326389  0.68781400    -0.10900
C907        C  0.23570995  0.33690688  0.69462634     0.05600
H908        H  0.30296038  0.33278572  0.70814074     0.07500
H909        H  0.31391038  0.27055405  0.71020899     0.11000
H910        H  0.19855267  0.19260265  0.68227782     0.11300
H911        H  0.18666105  0.25572798  0.68053349     0.07600
C912        C  0.22128886  0.34886291  0.68129248    -0.11600
C913        C  0.21937482  0.38770402  0.68107130    -0.10800
C914        C  0.23220500  0.41537584  0.69414052    -0.01800
C915        C  0.24443933  0.40218100  0.70767784    -0.11900
C916        C  0.24576491  0.36327883  0.70795910    -0.10300
H917        H  0.21321807  0.32922263  0.67085385     0.07600
H918        H  0.20928225  0.39676833  0.67051144     0.11300
H919        H  0.25336926  0.42210289  0.71807577     0.11000
H920        H  0.25545637  0.35422447  0.71861011     0.07600
C921        C  0.35857321  0.13906927  0.74703037    -0.11500
C922        C  0.36561089  0.17242009  0.75767184     0.05600
C923        C  0.34408936  0.19644268  0.75531062    -0.10300
C924        C  0.31871796  0.18961256  0.74218565    -0.12000
C925        C  0.31336887  0.15796941  0.73113189    -0.01700
C926        C  0.33240849  0.13174661  0.73386219    -0.10900
C927        C  0.39611436  0.18372113  0.77099290     0.05600
H928        H  0.34722513  0.22109370  0.76355502     0.07500
H929        H  0.30357424  0.20964840  0.74064790     0.11000
H930        H  0.32847591  0.10687872  0.72557264     0.11300
H931        H  0.37451813  0.11980301  0.74856397     0.07600
C932        C  0.39911918  0.15111834  0.77940386    -0.11600
C933        C  0.42583802  0.16231446  0.79256733    -0.10800
C934        C  0.44969578  0.20625186  0.79763773    -0.01800
C935        C  0.44782727  0.23890085  0.78888972    -0.11900
C936        C  0.42171693  0.22783008  0.77568251    -0.10300
H937        H  0.37981580  0.11686332  0.77612410     0.07600
H938        H  0.42675981  0.13639014  0.79902725     0.11300
H939        H  0.46644196  0.27314433  0.79227429     0.11000
H940        H  0.42143135  0.25401223  0.76917898     0.07600
C941        C  0.55394798  0.01500140  0.34718310    -0.11500
C942        C  0.57755056  0.00711146  0.35860458     0.05600
C943        C  0.59568721  0.03680368  0.37103355    -0.10300
C944        C  0.59156775  0.07419080  0.37179565    -0.12000
C945        C  0.56892141  0.08277231  0.36019301    -0.01700
C946        C  0.54964646  0.05243595  0.34797111    -0.10900
C947        C  0.58361203  0.96828047  0.35777568     0.05600
H948        H  0.61303519  0.03107173  0.38026623     0.07500
H949        H  0.60641213  0.09648301  0.38146497     0.11000
H950        H  0.53186053  0.05794821  0.33884284     0.11300
H951        H  0.53967635  0.99280590  0.33745958     0.07600
C952        C  0.54921037  0.92669394  0.35321417    -0.11600
C953        C  0.55376467  0.88939712  0.35454275    -0.10800
C954        C  0.59255562  0.89332493  0.36060494    -0.01800
C955        C  0.62784214  0.93517886  0.36405401    -0.11900
C956        C  0.62356550  0.97224377  0.36253959    -0.10300
H957        H  0.51805974  0.92261755  0.34944198     0.07600
H958        H  0.52614882  0.85735643  0.35180124     0.11300
H959        H  0.65840789  0.93907638  0.36846439     0.11000
H960        H  0.65120359  0.00395482  0.36559852     0.07600
C961        C  0.69725808  0.81707394  0.41322257    -0.11500
C962        C  0.69639611  0.84442171  0.42502882     0.05600
C963        C  0.66803357  0.86149284  0.42329233    -0.10300
C964        C  0.64284547  0.85313332  0.40990768    -0.12000
C965        C  0.64450802  0.82670535  0.39800655    -0.01700
C966        C  0.67124069  0.80797532  0.39990739    -0.10900
C967        C  0.72530059  0.85586488  0.43896283     0.05600
H968        H  0.66529295  0.88153704  0.43225776     0.07500
H969        H  0.62212087  0.86764958  0.40881771     0.11000
H970        H  0.67343096  0.78787286  0.39082794     0.11300
H971        H  0.71902325  0.80373985  0.41401361     0.07600
C972        C  0.73595214  0.82557817  0.44537958    -0.11600
C973        C  0.76246098  0.83629642  0.45859162    -0.10800
C974        C  0.77872707  0.87746488  0.46581974    -0.01800
C975        C  0.76857757  0.90794525  0.45928906    -0.11900
C976        C  0.74244168  0.89738569  0.44603432    -0.10300
H977        H  0.72310833  0.79315753  0.44040008     0.07600
H978        H  0.76972233  0.81203126  0.46324149     0.11300
H979        H  0.78083385  0.94015683  0.46440287     0.11000
H980        H  0.73607190  0.92211512  0.44125978     0.07600
C981        C  0.56707430  0.58701652  0.36878297    -0.11500
C982        C  0.56063517  0.55717524  0.35683507     0.05600
C983        C  0.55540116  0.56745394  0.34158500    -0.10300
C984        C  0.55381254  0.60538266  0.33840827    -0.12000
C985        C  0.55774634  0.63416019  0.35039422    -0.01700
C986        C  0.56568484  0.62541255  0.36557107    -0.10900
C987        C  0.55754432  0.51443302  0.35999306     0.05600
H988        H  0.55164424  0.54557450  0.33211615     0.07500
H989        H  0.54859460  0.61174417  0.32654952     0.11000
H990        H  0.56888133  0.64716237  0.37500292     0.11300
H991        H  0.57138430  0.57977476  0.38062843     0.07600
C992        C  0.58915037  0.51159971  0.36902870    -0.11600
C993        C  0.58876883  0.47171058  0.37017667    -0.10800
C994        C  0.55679118  0.43422011  0.36227902    -0.01800
C995        C  0.52365189  0.43664383  0.35408133    -0.11900
C996        C  0.52401882  0.47631280  0.35297366    -0.10300
H997        H  0.61520501  0.54057613  0.37458576     0.07600
H998        H  0.61451081  0.47070597  0.37671077     0.11300
H999        H  0.49792529  0.40810518  0.34820820     0.11000
H1000       H  0.49862299  0.47750682  0.34627129     0.07600
C1001       C  0.38764643  0.69590460  0.27320267    -0.11500
C1002       C  0.40678143  0.67035574  0.27711696     0.05600
C1003       C  0.39903248  0.63494658  0.26748169    -0.10300
C1004       C  0.37181013  0.62437881  0.25456377    -0.12000
C1005       C  0.35164158  0.64905695  0.25080471    -0.01700
C1006       C  0.36032845  0.68536720  0.26016247    -0.10900
C1007       C  0.43364533  0.67916862  0.29139703     0.05600
H1008       H  0.41406014  0.61522289  0.26994855     0.07500
H1009       H  0.36655981  0.59664485  0.24751449     0.11000
H1010       H  0.34534251  0.70506820  0.25759835     0.11300
H1011       H  0.39284877  0.72327101  0.28044824     0.07600
C1012       C  0.46485209  0.72221046  0.29591155    -0.11600
C1013       C  0.49131894  0.72951541  0.30901102    -0.10800
C1014       C  0.48718843  0.69387888  0.31772568    -0.01800
C1015       C  0.45526743  0.65105698  0.31339093    -0.11900
C1016       C  0.42873760  0.64382806  0.30047428    -0.10300
H1017       H  0.46957871  0.75008616  0.28908950     0.07600
H1018       H  0.51581125  0.76283737  0.31205183     0.11300
H1019       H  0.45077752  0.62291736  0.32000371     0.11000
H1020       H  0.40432577  0.61036685  0.29755611     0.07600
C1021       C  0.79475374  0.96637369  0.11095234    -0.11500
C1022       C  0.80614144  0.01022035  0.11375707     0.05600
C1023       C  0.83671112  0.04328295  0.10392871    -0.10300
C1024       C  0.85410266  0.03222476  0.09118807    -0.12000
C1025       C  0.84085438  0.98796545  0.08806846    -0.01700
C1026       C  0.81158660  0.95537204  0.09823798    -0.10900
C1027       C  0.78473462  0.02004757  0.12675106     0.05600
H1028       H  0.84611155  0.07734705  0.10582363     0.07500
H1029       H  0.87670412  0.05801834  0.08351273     0.11000
H1030       H  0.80149091  0.92112132  0.09633053     0.11300
H1031       H  0.77239274  0.94028006  0.11858199     0.07600
C1032       C  0.74006815  0.99122940  0.12967912    -0.11600
C1033       C  0.72034780  0.99563966  0.14296602    -0.10800
C1034       C  0.74448164  0.02947751  0.15364034    -0.01800
C1035       C  0.78849136  0.06033837  0.15026751    -0.11900
C1036       C  0.80853753  0.05561037  0.13689632    -0.10300
H1037       H  0.72044454  0.96438919  0.12182688     0.07600
H1038       H  0.68608872  0.97191222  0.14495151     0.11300
H1039       H  0.80776022  0.08706135  0.15820115     0.11000
H1040       H  0.84298176  0.07850567  0.13486396     0.07600
C1041       C  0.54457023  0.91931132  0.19632348    -0.11500
C1042       C  0.53916442  0.87811182  0.19224407     0.05600
C1043       C  0.57579640  0.87554180  0.18730363    -0.10300
C1044       C  0.61653155  0.91355677  0.18574597    -0.12000
C1045       C  0.62159545  0.95488850  0.18922070    -0.01700
C1046       C  0.58558965  0.95746372  0.19487830    -0.10900
C1047       C  0.49516750  0.83817386  0.19236373     0.05600
H1048       H  0.57272614  0.84414462  0.18437249     0.07500
H1049       H  0.64400179  0.91075913  0.18150341     0.11000
H1050       H  0.58866928  0.98905931  0.19745290     0.11300
H1051       H  0.51672504  0.92219356  0.20003090     0.07600
C1052       C  0.46626910  0.82951565  0.20479375    -0.11600
C1053       C  0.42450966  0.79212883  0.20468592    -0.10800
C1054       C  0.41073230  0.76273490  0.19209826    -0.01800
C1055       C  0.43986421  0.77145442  0.17968788    -0.11900
C1056       C  0.48157702  0.80872719  0.17982880    -0.10300
H1057       H  0.47616038  0.85146978  0.21466547     0.07600
H1058       H  0.40312861  0.78619169  0.21451119     0.11300
H1059       H  0.43041868  0.74963042  0.16978807     0.11000
H1060       H  0.50300622  0.81491984  0.16999291     0.07600
C1061       C  0.69349340  0.20290014  0.24987005    -0.11500
C1062       C  0.66374991  0.16721266  0.25894162     0.05600
C1063       C  0.65128943  0.12430162  0.25408855    -0.10300
C1064       C  0.67066680  0.11752938  0.24096033    -0.12000
C1065       C  0.70285476  0.15361440  0.23261667    -0.01700
C1066       C  0.71302309  0.19620957  0.23693975    -0.10900
C1067       C  0.64880448  0.17563462  0.27394369     0.05600
H1068       H  0.62831770  0.09620724  0.26086010     0.07500
H1069       H  0.66218051  0.08435616  0.23781971     0.11000
H1070       H  0.73700720  0.22460614  0.23051922     0.11300
H1071       H  0.70269841  0.23624499  0.25306191     0.07600
C1072       C  0.67911950  0.20955155  0.28355286    -0.11600
C1073       C  0.66562704  0.21990821  0.29729107    -0.10800
C1074       C  0.62140861  0.19655016  0.30181309    -0.01800
C1075       C  0.59129152  0.16116741  0.29259350    -0.11900
C1076       C  0.60489007  0.15082603  0.27874558    -0.10300
H1077       H  0.71345340  0.22836144  0.28038620     0.07600
H1078       H  0.68988301  0.24667524  0.30428035     0.11300
H1079       H  0.55701272  0.14236332  0.29582231     0.11000
H1080       H  0.58090264  0.12439111  0.27158214     0.07600
C1081       C  0.90263632  0.28101923  0.21408352    -0.11500
C1082       C  0.92318193  0.29039296  0.19951380     0.05600
C1083       C  0.90297379  0.25968134  0.18744375    -0.10300
C1084       C  0.86203857  0.22179403  0.18973102    -0.12000
C1085       C  0.84044795  0.21438334  0.20404209    -0.01700
C1086       C  0.86169827  0.24386490  0.21626291    -0.10900
C1087       C  0.96461474  0.33282952  0.19705764     0.05600
H1088       H  0.91785877  0.26567878  0.17607970     0.07500
H1089       H  0.84650114  0.19937481  0.18014208     0.11000
H1090       H  0.84642022  0.23851173  0.22755238     0.11300
H1091       H  0.91791908  0.30275792  0.22385052     0.07600
C1092       C  0.97148376  0.37078177  0.20498162    -0.11600
C1093       C  0.01113309  0.41010902  0.20370902    -0.10800
C1094       C  0.04485073  0.41297537  0.19421961    -0.01800
C1095       C  0.03745561  0.37571831  0.18569464    -0.11900
C1096       C  0.99781273  0.33597795  0.18715323    -0.10300
H1097       H  0.94616098  0.37023008  0.21225320     0.07600
H1098       H  0.01531853  0.43832822  0.21021334     0.11300
H1099       H  0.06273738  0.37689891  0.17822244     0.11000
H1100       H  0.99376564  0.30750442  0.18087847     0.07600
C1101       C  0.79729117  0.24791858  0.37161944    -0.11500
C1102       C  0.82152546  0.25887694  0.35781636     0.05600
C1103       C  0.80385591  0.26667683  0.34438815    -0.10300
C1104       C  0.76391548  0.26589658  0.34491013    -0.12000
C1105       C  0.74043114  0.25673409  0.35884516    -0.01700
C1106       C  0.75701653  0.24679766  0.37212580    -0.10900
C1107       C  0.86668798  0.26602825  0.35748907     0.05600
H1108       H  0.82147666  0.27429396  0.33350400     0.07500
H1109       H  0.75159495  0.27278995  0.33441476     0.11000
H1110       H  0.73954865  0.23950872  0.38303260     0.11300
H1111       H  0.81028865  0.24200088  0.38213613     0.07600
C1112       C  0.89936919  0.30306219  0.34980032    -0.11600
C1113       C  0.94153495  0.30972797  0.34842276    -0.10800
C1114       C  0.95244503  0.27955656  0.35470223    -0.01800
C1115       C  0.92039242  0.24336610  0.36309610    -0.11900
C1116       C  0.87769973  0.23668304  0.36450668    -0.10300
H1117       H  0.89220867  0.32693681  0.34470328     0.07600
H1118       H  0.96548540  0.33844559  0.34214211     0.11300
H1119       H  0.92787611  0.21963887  0.36810898     0.11000
H1120       H  0.85304407  0.20799285  0.37061106     0.07600
C1121       C  0.08918580  0.40327960  0.30418552    -0.11500
C1122       C  0.12040120  0.39859419  0.29549984     0.05600
C1123       C  0.13516306  0.37067494  0.30119950    -0.10300
C1124       C  0.11728032  0.34630810  0.31478968    -0.12000
C1125       C  0.08401327  0.34907973  0.32280445    -0.01700
C1126       C  0.07100688  0.37863735  0.31753987    -0.10900
C1127       C  0.13594793  0.42188548  0.28038581     0.05600
H1128       H  0.15920750  0.36625341  0.29486559     0.07500
H1129       H  0.12811373  0.32395420  0.31862550     0.11000
H1130       H  0.04608744  0.38230252  0.32360948     0.11300
H1131       H  0.07823693  0.42571625  0.30058485     0.07600
C1132       C  0.10720096  0.42889386  0.27109078    -0.11600
C1133       C  0.12177062  0.45324759  0.25747393    -0.10800
C1134       C  0.16540365  0.47079609  0.25253165    -0.01800
C1135       C  0.19376490  0.46200882  0.26135420    -0.11900
C1136       C  0.17924021  0.43796220  0.27517771    -0.10300
H1137       H  0.07317274  0.41562185  0.27432784     0.07600
H1138       H  0.09865415  0.45847535  0.25085097     0.11300
H1139       H  0.22750094  0.47471650  0.25781596     0.11000
H1140       H  0.20232975  0.43319558  0.28198852     0.07600
C1141       C  0.98064568  0.12908325  0.41406565    -0.11500
C1142       C  0.00712426  0.12470264  0.42529180     0.05600
C1143       C  0.05273036  0.14655450  0.42316237    -0.10300
C1144       C  0.07145508  0.17082501  0.40981995    -0.12000
C1145       C  0.04509139  0.17429207  0.39836059    -0.01700
C1146       C  0.99957793  0.15393572  0.40067766    -0.10900
C1147       C  0.98781166  0.09600395  0.43892561     0.05600
H1148       H  0.07397714  0.14454712  0.43179941     0.07500
H1149       H  0.10674812  0.18693558  0.40847945     0.11000
H1150       H  0.97864653  0.15620118  0.39197446     0.11300
H1151       H  0.94534620  0.11229050  0.41543660     0.07600
C1152       C  0.95469423  0.09680715  0.44776021    -0.11600
C1153       C  0.93866084  0.07097163  0.46111897    -0.10800
C1154       C  0.95566699  0.04413132  0.46579612    -0.01800
C1155       C  0.98795525  0.04267639  0.45665891    -0.11900
C1156       C  0.00372623  0.06819566  0.44339114    -0.10300
H1157       H  0.94209159  0.11820085  0.44456005     0.07600
H1158       H  0.91379110  0.07275209  0.46794967     0.11300
H1159       H  0.00126171  0.02180636  0.45976358     0.11000
H1160       H  0.02857864  0.06623582  0.43660248     0.07600
C1161       C  0.24770441  0.27772798  0.35980600    -0.11500
C1162       C  0.25314161  0.24090702  0.36146756     0.05600
C1163       C  0.21585678  0.19917620  0.36326572    -0.10300
C1164       C  0.17422553  0.19459178  0.36419332    -0.12000
C1165       C  0.16897908  0.23154845  0.36318209    -0.01700
C1166       C  0.20582884  0.27304297  0.36060085    -0.10900
C1167       C  0.29749005  0.24585306  0.36186218     0.05600
H1168       H  0.21902032  0.17016155  0.36425750     0.07500
H1169       H  0.14612327  0.16224650  0.36614500     0.11000
H1170       H  0.20250231  0.30203299  0.36006789     0.11300
H1171       H  0.27596329  0.31029832  0.35852872     0.07600
C1172       C  0.32963726  0.27260840  0.35106803    -0.11600
C1173       C  0.37089450  0.27584632  0.35116300    -0.10800
C1174       C  0.38097728  0.25263052  0.36214409    -0.01800
C1175       C  0.34900519  0.22671465  0.37318596    -0.11900
C1176       C  0.30774451  0.22329272  0.37301342    -0.10300
H1177       H  0.32251080  0.29024342  0.34232948     0.07600
H1178       H  0.39472819  0.29625911  0.34253099     0.11300
H1179       H  0.35559726  0.20859648  0.38188940     0.11000
H1180       H  0.28380426  0.20303438  0.38164993     0.07600
C1181       C  0.55670586  0.87045903  0.03518659    -0.11500
C1182       C  0.58969579  0.90743288  0.02745611     0.05600
C1183       C  0.57868555  0.93672621  0.02039952    -0.10300
C1184       C  0.53616423  0.93039108  0.02184475    -0.12000
C1185       C  0.50407635  0.89477473  0.03042394    -0.01700
C1186       C  0.51462902  0.86437017  0.03673249    -0.10900
C1187       C  0.63559694  0.91597556  0.02760700     0.05600
H1188       H  0.60335828  0.96549614  0.01434314     0.07500
H1189       H  0.52897606  0.95431672  0.01682514     0.11000
H1190       H  0.49049499  0.83609325  0.04316062     0.11300
H1191       H  0.56364519  0.84649255  0.04033003     0.07600
C1192       C  0.65225052  0.90714352  0.04107858    -0.11600
C1193       C  0.69412201  0.91223020  0.04126447    -0.10800
C1194       C  0.72077842  0.92657420  0.02800508    -0.01800
C1195       C  0.70510668  0.93749359  0.01470293    -0.11900
C1196       C  0.66283336  0.93213467  0.01449499    -0.10300
H1197       H  0.63272735  0.89600190  0.05154100     0.07600
H1198       H  0.70539871  0.90437762  0.05181111     0.11300
H1199       H  0.72490638  0.94879883  0.00430534     0.11000
H1200       H  0.65099423  0.93930925  0.00394758     0.07600
C1201       C  0.27993958  0.75199214  0.11247452    -0.11500
C1202       C  0.31389923  0.75222637  0.10379566     0.05600
C1203       C  0.32999839  0.72458839  0.10843281    -0.10300
C1204       C  0.31465004  0.69945685  0.12186301    -0.12000
C1205       C  0.28226213  0.70069295  0.13099150    -0.01700
C1206       C  0.26416022  0.72633469  0.12594293    -0.10900
C1207       C  0.33470383  0.78258270  0.09045801     0.05600
H1208       H  0.35511721  0.72281996  0.10175574     0.07500
H1209       H  0.32855372  0.67924725  0.12516096     0.11000
H1210       H  0.23887875  0.72769353  0.13265895     0.11300
H1211       H  0.26676604  0.77283402  0.10919383     0.07600
C1212       C  0.30999001  0.79074909  0.07949827    -0.11600
C1213       C  0.33054607  0.81750669  0.06654161    -0.10800
C1214       C  0.37604019  0.83623758  0.06432609    -0.01800
C1215       C  0.40063669  0.82924846  0.07561303    -0.26300
C1216       C  0.38036383  0.80312988  0.08850099    -0.10300
H1217       H  0.27473975  0.77546335  0.08069694     0.07600
H1218       H  0.31076661  0.82243615  0.05805714     0.11300
H1219       H  0.43585870  0.84390012  0.07448020     0.11000
H1220       H  0.40064225  0.79883873  0.09695164     0.07600
C1221       C  0.43256958  0.07031433  0.97033768    -0.11500
C1222       C  0.45428518  0.05852631  0.95937931     0.05600
C1223       C  0.46081949  0.02293833  0.96261988    -0.10300
C1224       C  0.44386280  0.99829621  0.97625566    -0.12000
C1225       C  0.42009244  0.00893177  0.98677046    -0.01700
C1226       C  0.41564024  0.04581676  0.98381710    -0.10900
C1227       C  0.46844221  0.08279755  0.94448506     0.05600
H1228       H  0.47748731  0.01318339  0.95434603     0.07500
H1229       H  0.44756096  0.96988932  0.97822050     0.11000
H1230       H  0.39808927  0.05524431  0.99182535     0.11300
H1231       H  0.42803695  0.09821878  0.96835234     0.07600
C1232       C  0.44013336  0.09334918  0.93649852    -0.11600
C1233       C  0.45387257  0.11858422  0.92300967    -0.10800
C1234       C  0.49639585  0.13405501  0.91716401    -0.01800
C1235       C  0.52432643  0.12243384  0.92492761    -0.11900
C1236       C  0.51043640  0.09697390  0.93842999    -0.10300
H1237       H  0.40728007  0.08221499  0.94076083     0.07600
H1238       H  0.43125705  0.12640725  0.91728805     0.11300
H1239       H  0.55728771  0.13372763  0.92076258     0.11000
H1240       H  0.53296889  0.08948922  0.94439360     0.07600
C1241       C  0.23611448  0.96875951  0.01385894    -0.11500
C1242       C  0.20966528  0.94366705  0.02626746     0.05600
C1243       C  0.22482272  0.92145009  0.03577576    -0.10300
C1244       C  0.26541562  0.92420536  0.03281897    -0.12000
C1245       C  0.29154579  0.94919607  0.02028924    -0.01700
C1246       C  0.27637657  0.97165223  0.01096839    -0.10900
C1247       C  0.16616705  0.94036433  0.02875815     0.05600
H1248       H  0.20542573  0.90212946  0.04552045     0.07500
H1249       H  0.27617497  0.90665054  0.04026840     0.11000
H1250       H  0.29528216  0.99113181  0.00116750     0.11300
H1251       H  0.22526402  0.98551957  0.00606076     0.07600
C1252       C  0.16101070  0.97691270  0.02582985    -0.11600
C1253       C  0.11960557  0.97304542  0.02624545    -0.10800
C1254       C  0.08231675  0.93283238  0.02997607    -0.01800
C1255       C  0.08738815  0.89670921  0.03368613    -0.11900
C1256       C  0.12893181  0.90034225  0.03297083    -0.10300
H1257       H  0.18901556  0.00855205  0.02297782     0.07600
H1258       H  0.11670283  0.00163752  0.02362719     0.11300
H1259       H  0.05904966  0.86532270  0.03657265     0.11000
H1260       H  0.13161681  0.87145290  0.03516080     0.07600
C1261       C  0.35575829  0.54998171  0.61781494    -0.11500
C1262       C  0.32720118  0.51341827  0.60875506     0.05600
C1263       C  0.28348966  0.48717100  0.61362846    -0.10300
C1264       C  0.26831264  0.49843209  0.62689824    -0.12000
C1265       C  0.29651165  0.53629464  0.63548973    -0.01700
C1266       C  0.34058075  0.56145383  0.63090711    -0.10900
C1267       C  0.34299056  0.50470501  0.59391584     0.05600
H1268       H  0.26064322  0.45884630  0.60691131     0.07500
H1269       H  0.23423611  0.47811725  0.63018663     0.11000
H1270       H  0.36351156  0.59028994  0.63739943     0.11300
H1271       H  0.38999380  0.57016465  0.61470329     0.07600
C1272       C  0.37246876  0.54033522  0.58477891    -0.11600
C1273       C  0.38995721  0.53359424  0.57133746    -0.10800
C1274       C  0.37826969  0.49095488  0.56646181    -0.01800
C1275       C  0.34708614  0.45488813  0.57509212    -0.11900
C1276       C  0.32963265  0.46172819  0.58876655    -0.10300
H1277       H  0.38230380  0.57377762  0.58803713     0.07600
H1278       H  0.41320886  0.56218561  0.56482844     0.11300
H1279       H  0.33739943  0.42165507  0.57158743     0.11000
H1280       H  0.30683522  0.43353972  0.59553097     0.07600
C1281       C  0.65850077  0.68416618  0.51406423    -0.11500
C1282       C  0.63441992  0.67137137  0.52793676     0.05600
C1283       C  0.65304765  0.69673951  0.54134367    -0.10300
C1284       C  0.69360650  0.73523579  0.54074892    -0.12000
C1285       C  0.71693746  0.74911918  0.52676849    -0.01700
C1286       C  0.69951516  0.72265245  0.51349845    -0.10900
C1287       C  0.58933285  0.63287429  0.52856118     0.05600
H1288       H  0.63600279  0.68702512  0.55233742     0.07500
H1289       H  0.70658508  0.75427238  0.55126462     0.11000
H1290       H  0.71692036  0.73238089  0.50257232     0.11300
H1291       H  0.64503287  0.66529581  0.50355426     0.07600
C1292       C  0.55746804  0.63530076  0.53758387    -0.11600
C1293       C  0.51619131  0.59861694  0.53957893    -0.10800
C1294       C  0.50531486  0.55836630  0.53251632    -0.01800
C1295       C  0.53612308  0.55636131  0.52269013    -0.11900
C1296       C  0.57790791  0.59339867  0.52073389    -0.10300
H1297       H  0.56463381  0.66559293  0.54332687     0.07600
H1298       H  0.49304109  0.60176467  0.54696569     0.11300
H1299       H  0.52855980  0.52589385  0.51699826     0.11000
H1300       H  0.60174020  0.59064390  0.51361380     0.07600
C1301       C  0.13346006  0.17170723  0.53789458    -0.11500
C1302       C  0.16184578  0.18066717  0.52525437     0.05600
C1303       C  0.14694093  0.15240628  0.51237724    -0.10300
C1304       C  0.10539808  0.11504082  0.51236940    -0.12000
C1305       C  0.07754199  0.10493454  0.52524365    -0.01700
C1306       C  0.09166842  0.13420167  0.53788721    -0.10900
C1307       C  0.20714134  0.21884527  0.52535645     0.05600
H1308       H  0.16756024  0.15911363  0.50226850     0.07500
H1309       H  0.09539795  0.09377552  0.50230575     0.11000
H1310       H  0.07091915  0.12759411  0.54794987     0.11300
H1311       H  0.14402848  0.19295309  0.54796375     0.07600
C1312       C  0.21608463  0.26021894  0.53085939    -0.11600
C1313       C  0.25823206  0.29686327  0.52939081    -0.10800
C1314       C  0.29184159  0.29265276  0.52228382    -0.01800
C1315       C  0.28338567  0.25091163  0.51755324    -0.11900
C1316       C  0.24163527  0.21440154  0.51917315    -0.10300
H1317       H  0.19013413  0.26462237  0.53567168     0.07600
H1318       H  0.26397146  0.32875144  0.53311822     0.11300
H1319       H  0.30894862  0.24661175  0.51230553     0.11000
H1320       H  0.23610223  0.18272262  0.51527220     0.07600
C1321       C  0.47994838  0.37056512  0.47377971    -0.11500
C1322       C  0.45459194  0.35455178  0.46021920     0.05600
C1323       C  0.41103295  0.34583354  0.46034765    -0.10300
C1324       C  0.39240118  0.35050197  0.47392362    -0.12000
C1325       C  0.41721781  0.36504848  0.48754940    -0.01700
C1326       C  0.46141173  0.37610350  0.48735393    -0.10900
C1327       C  0.47185735  0.34351610  0.44630737     0.05600
H1328       H  0.39099545  0.33443179  0.44999975     0.07500
H1329       H  0.35836709  0.34235373  0.47383624     0.11000
H1330       H  0.48090306  0.38713826  0.49783474     0.11300
H1331       H  0.51344087  0.37710110  0.47405596     0.07600
C1332       C  0.51508874  0.37083578  0.44111304    -0.11600
C1333       C  0.53069897  0.35909981  0.42807307    -0.10800
C1334       C  0.50339810  0.31964127  0.42012548    -0.01800
C1335       C  0.46014736  0.29273738  0.42533227    -0.11900
C1336       C  0.44468826  0.30443424  0.43824743    -0.10300
H1337       H  0.53663112  0.40132905  0.44705638     0.07600
H1338       H  0.56412209  0.38068931  0.42430730     0.11300
H1339       H  0.43801014  0.26226137  0.41948800     0.11000
H1340       H  0.41148468  0.28228140  0.44210236     0.07600
C1341       C  0.72800361  0.48950372  0.75877818    -0.11500
C1342       C  0.68280349  0.47008990  0.76150798     0.05600
C1343       C  0.65735197  0.47963367  0.75135056    -0.10300
C1344       C  0.67658586  0.50653269  0.73834406    -0.12000
C1345       C  0.72151941  0.52413748  0.73529967    -0.01700
C1346       C  0.74700990  0.51595176  0.74587403    -0.10900
C1347       C  0.66276346  0.43902423  0.77466064     0.05600
H1348       H  0.62237630  0.46511271  0.75315395     0.07500
H1349       H  0.65612660  0.51232092  0.73044418     0.11000
H1350       H  0.78190299  0.52955514  0.74410912     0.11300
H1351       H  0.74883508  0.48398611  0.76658941     0.07600
C1352       C  0.67771349  0.40977255  0.77836540    -0.11600
C1353       C  0.66070768  0.38173677  0.79105690    -0.10800
C1354       C  0.62784585  0.38173229  0.80029094    -0.01800
C1355       C  0.61205954  0.41019014  0.79643487    -0.11900
C1356       C  0.62947393  0.43869333  0.78376112    -0.10300
H1357       H  0.70257620  0.40838786  0.77139700     0.07600
H1358       H  0.67323779  0.35985452  0.79359170     0.11300
H1359       H  0.58697815  0.41113124  0.80341509     0.11000
H1360       H  0.61759647  0.46112932  0.78129840     0.07600
C1361       C  0.92018982  0.61921219  0.69025972    -0.11500
C1362       C  0.92898905  0.58764569  0.69673141     0.05600
C1363       C  0.89500639  0.55089735  0.70416295    -0.10300
C1364       C  0.85400354  0.54695564  0.70597187    -0.12000
C1365       C  0.84559277  0.57939458  0.70024400    -0.01700
C1366       C  0.87859994  0.61504077  0.69197806    -0.10900
C1367       C  0.97347395  0.59291215  0.69641710     0.05600
H1368       H  0.90033784  0.52534300  0.70882697     0.07500
H1369       H  0.82892930  0.51860473  0.71211464     0.11000
H1370       H  0.87284089  0.64043693  0.68744206     0.11300
H1371       H  0.94582999  0.64782037  0.68441976     0.07600
C1372       C  0.99930394  0.60656421  0.68296344    -0.11600
C1373       C  0.03965611  0.60775784  0.68259092    -0.10800
C1374       C  0.05474309  0.59514747  0.69565362    -0.01800
C1375       C  0.02950636  0.58303256  0.70923151    -0.11900
C1376       C  0.98951918  0.58215839  0.70962741    -0.10300
H1377       H  0.98770389  0.61494590  0.67261495     0.07600
H1378       H  0.05849212  0.61749765  0.67195696     0.11300
H1379       H  0.04057973  0.57407695  0.71958233     0.11000
H1380       H  0.97085096  0.57263517  0.72029958     0.07600
C1381       C  0.45718007  0.56181183  0.69792472    -0.11500
C1382       C  0.48965286  0.58939512  0.68732279     0.05600
C1383       C  0.48274621  0.61912914  0.67857103    -0.10300
C1384       C  0.44422010  0.62089649  0.68019805    -0.12000
C1385       C  0.41153031  0.59318247  0.69072294    -0.01700
C1386       C  0.41853266  0.56366821  0.69960273    -0.10900
C1387       C  0.53107236  0.58818169  0.68543073     0.05600
H1388       H  0.50747682  0.64160220  0.67056126     0.07500
H1389       H  0.44023274  0.64425247  0.67321795     0.11000
H1390       H  0.39396606  0.54164930  0.70774895     0.11300
H1391       H  0.46135699  0.53835431  0.70476357     0.07600
C1392       C  0.55332286  0.58408890  0.69830987    -0.11600
C1393       C  0.59501573  0.58863009  0.69657570    -0.10800
C1394       C  0.61525525  0.59778895  0.68196962    -0.01800
C1395       C  0.59181032  0.59902939  0.66900252    -0.11900
C1396       C  0.55016454  0.59401227  0.67069571    -0.10300
H1397       H  0.53951306  0.57955139  0.70982094     0.07600
H1398       H  0.61230304  0.58729482  0.70674907     0.11300
H1399       H  0.60615288  0.60497461  0.65753351     0.11000
H1400       H  0.53333450  0.59583862  0.66047137     0.07600
C1401       C  0.76161344  0.73606195  0.63590090    -0.11500
C1402       C  0.78969449  0.72866219  0.62640265     0.05600
C1403       C  0.80086811  0.69706073  0.63097793    -0.10300
C1404       C  0.78255070  0.67197986  0.64441726    -0.12000
C1405       C  0.75250648  0.67788922  0.65333599    -0.01700
C1406       C  0.74299548  0.71076729  0.64911556    -0.10900
C1407       C  0.80527247  0.75278367  0.61151075     0.05600
H1408       H  0.82234186  0.69057332  0.62386632     0.07500
H1409       H  0.79021832  0.64666092  0.64742630     0.11000
H1410       H  0.72047401  0.71645531  0.65594072     0.11300
H1411       H  0.75336280  0.76100833  0.63295236     0.07600
C1412       C  0.77631414  0.75978146  0.60237049    -0.11600
C1413       C  0.79079948  0.78477799  0.58889049    -0.10800
C1414       C  0.83467139  0.80335663  0.58409514    -0.01800
C1415       C  0.86340202  0.79500826  0.59288476    -0.11900
C1416       C  0.84881027  0.76992117  0.60647914    -0.10300
H1417       H  0.74227175  0.74603970  0.60569958     0.07600
H1418       H  0.76752365  0.78983531  0.58229669     0.11300
H1419       H  0.89739851  0.80878139  0.58949360     0.11000
H1420       H  0.87187000  0.76508309  0.61329193     0.07600
C1421       C  0.32018691  0.02859090  0.87456843    -0.11500
C1422       C  0.29844380  0.00397012  0.86133931     0.05600
C1423       C  0.31905711  0.01815144  0.84682010    -0.10300
C1424       C  0.36012306  0.05665512  0.84560997    -0.12000
C1425       C  0.38092311  0.08169239  0.85888595    -0.01700
C1426       C  0.36053255  0.06700789  0.87334302    -0.10900
C1427       C  0.25419414  0.96429409  0.86299959     0.05600
H1428       H  0.30306691  0.00007912  0.83639314     0.07500
H1429       H  0.37507615  0.06735308  0.83430752     0.11000
H1430       H  0.37601404  0.08510935  0.88383362     0.11300
H1431       H  0.30609213  0.01808422  0.88599104     0.07600
C1432       C  0.24141233  0.92590960  0.85424816    -0.11600
C1433       C  0.20067929  0.88793822  0.85688849    -0.10800
C1434       C  0.17226890  0.88768441  0.86840287    -0.01800
C1435       C  0.18469922  0.92649483  0.87676244    -0.11900
C1436       C  0.22478763  0.96424073  0.87401474    -0.10300
H1437       H  0.26335506  0.92480623  0.84570462     0.07600
H1438       H  0.19193768  0.85857690  0.85021418     0.11300
H1439       H  0.16337235  0.92787981  0.88551255     0.11000
H1440       H  0.23280635  0.99350371  0.88063592     0.07600
C1441       C  0.05760560  0.83757703  0.93054224    -0.11500
C1442       C  0.01301087  0.82544224  0.93132066     0.05600
C1443       C  0.98605747  0.80404738  0.91842055    -0.10300
C1444       C  0.00381517  0.79698385  0.90488806    -0.12000
C1445       C  0.04892332  0.81194364  0.90392621    -0.01700
C1446       C  0.07538448  0.83147744  0.91697055    -0.10900
C1447       C  0.99580716  0.83757563  0.94517469     0.05600
H1448       H  0.95167181  0.79447155  0.91849450     0.07500
H1449       H  0.98280849  0.78201673  0.89492753     0.11000
H1450       H  0.11019179  0.84272636  0.91658567     0.11300
H1451       H  0.07919505  0.85263884  0.94034728     0.07600
C1452       C  0.95226520  0.81111185  0.95029962    -0.11600
C1453       C  0.93644909  0.82378776  0.96306692    -0.10800
C1454       C  0.96381247  0.86322650  0.97101496    -0.01800
C1455       C  0.00739745  0.88927848  0.96598496    -0.11900
C1456       C  0.02302670  0.87682617  0.95323887    -0.10300
H1457       H  0.93042570  0.78042999  0.94453161     0.07600
H1458       H  0.90272782  0.80280193  0.96664144     0.11300
H1459       H  0.02960551  0.91978492  0.97179825     0.11000
H1460       H  0.05638958  0.89875718  0.94952063     0.07600
C1461       C  0.88008087  0.57062881  0.83947717    -0.11500
C1462       C  0.86061050  0.56038543  0.85418991     0.05600
C1463       C  0.88128687  0.59007676  0.86645834    -0.10300
C1464       C  0.92199788  0.62821065  0.86419061    -0.12000
C1465       C  0.94249770  0.63704015  0.84962568    -0.01700
C1466       C  0.92046684  0.60841649  0.83722293    -0.10900
C1467       C  0.81990580  0.51779804  0.85664776     0.05600
H1468       H  0.86686959  0.58289480  0.87791988     0.07500
H1469       H  0.93818321  0.64970679  0.87394365     0.11000
H1470       H  0.93491404  0.61462885  0.82576865     0.11300
H1471       H  0.86434740  0.54893006  0.82972336     0.07600
C1472       C  0.78480183  0.51505624  0.86528500    -0.11600
C1473       C  0.74572223  0.47484568  0.86676848    -0.10800
C1474       C  0.74120779  0.43681301  0.85962116    -0.01800
C1475       C  0.77684945  0.43949824  0.85136680    -0.11900
C1476       C  0.81573645  0.47946281  0.84993538    -0.10300
H1477       H  0.78714116  0.54419489  0.87049769     0.07600
H1478       H  0.71866402  0.47379222  0.87311150     0.11300
H1479       H  0.77462635  0.41069080  0.84589867     0.11000
H1480       H  0.84261784  0.48043226  0.84349496     0.07600
C1481       C  0.14239061  0.71212477  0.80552062    -0.11500
C1482       C  0.11711081  0.68235038  0.79377426     0.05600
C1483       C  0.07124531  0.66203854  0.79450430    -0.10300
C1484       C  0.05095174  0.66997118  0.80688994    -0.12000
C1485       C  0.07588886  0.69872997  0.81888761    -0.01700
C1486       C  0.12190249  0.72032097  0.81799894    -0.10900
C1487       C  0.13765829  0.67132713  0.78084188     0.05600
H1488       H  0.05086246  0.63980500  0.78545891     0.07500
H1489       H  0.01543725  0.65317833  0.80707864     0.11000
H1490       H  0.14191810  0.74245253  0.82712357     0.11300
H1491       H  0.17784612  0.72808865  0.80526895     0.07600
C1492       C  0.17509111  0.70397340  0.77320400    -0.11600
C1493       C  0.19207416  0.69326589  0.76029831    -0.10800
C1494       C  0.17184396  0.64972040  0.75483411    -0.01800
C1495       C  0.13509230  0.61707069  0.76277464    -0.11900
C1496       C  0.11838458  0.62769793  0.77562459    -0.10300
H1497       H  0.19040364  0.73792073  0.77691737     0.07600
H1498       H  0.22035029  0.71918889  0.75440754     0.11300
H1499       H  0.11891110  0.58309381  0.75903409     0.11000
H1500       H  0.09007275  0.60163043  0.78145773     0.07600
C1501       C  0.36057829  0.10776550  0.25500616    -0.11500
C1502       C  0.35934894  0.14261060  0.26245300     0.05600
C1503       C  0.33463840  0.15986032  0.25586516    -0.10300
C1504       C  0.31061086  0.14164446  0.24226242    -0.12000
C1505       C  0.31105429  0.10597440  0.23505807    -0.01700
C1506       C  0.33671119  0.08963557  0.24152436    -0.10900
C1507       C  0.38384504  0.16027091  0.27707831     0.05600
H1508       H  0.33311470  0.18671158  0.26141327     0.07500
H1509       H  0.29121496  0.15498612  0.23755099     0.11000
H1510       H  0.33830589  0.06252021  0.23623172     0.11300
H1511       H  0.38019440  0.09450672  0.25959367     0.07600
C1512       C  0.38444269  0.13136968  0.28817262    -0.11600
C1513       C  0.41070255  0.14756203  0.30129518    -0.10800
C1514       C  0.43663324  0.19303417  0.30369786    -0.01800
C1515       C  0.43451435  0.22204723  0.29301350    -0.11900
C1516       C  0.40841719  0.20576846  0.27975595    -0.10300
H1517       H  0.36497102  0.09611562  0.28659696     0.07600
H1518       H  0.41101480  0.12441494  0.30950147     0.11300
H1519       H  0.45421050  0.25727400  0.29461275     0.11000
H1520       H  0.40870431  0.22874277  0.27134335     0.07600
C1521       C  0.22173557  0.82842074  0.17979228    -0.11500
C1522       C  0.23971259  0.85569146  0.19284445     0.05600
C1523       C  0.25121163  0.83929405  0.20576991    -0.10300
C1524       C  0.24682710  0.79771258  0.20546739    -0.12000
C1525       C  0.23034595  0.77091750  0.19228908    -0.01700
C1526       C  0.21696068  0.78631276  0.17953150    -0.10900
C1527       C  0.24685775  0.90114176  0.19330777     0.05600
H1528       H  0.26363879  0.85863522  0.21624190     0.07500
H1529       H  0.25659762  0.78666172  0.21562828     0.11000
H1530       H  0.20387715  0.76633831  0.16921992     0.11300
H1531       H  0.21243842  0.83999762  0.16965971     0.07600
C1532       C  0.28350725  0.93420097  0.20116619    -0.11600
C1533       C  0.28771818  0.97521727  0.20370548    -0.10800
C1534       C  0.25575375  0.98469312  0.19825939    -0.01800
C1535       C  0.22082349  0.95302610  0.18932498    -0.11900
C1536       C  0.21631321  0.91145608  0.18691003    -0.10300
H1537       H  0.30856499  0.92803999  0.20574371     0.07600
H1538       H  0.31562125  0.99919046  0.21033591     0.11300
H1539       H  0.19586666  0.95954448  0.18489170     0.11000
H1540       H  0.18781334  0.88680491  0.18072707     0.07600
C1541       C  0.10326351  0.01272962  0.14065869    -0.11500
C1542       C  0.09321209  0.03819997  0.13072438     0.05600
C1543       C  0.10978786  0.08279714  0.13421634    -0.10300
C1544       C  0.13462684  0.10123028  0.14751807    -0.12000
C1545       C  0.14395708  0.07570193  0.15764807    -0.01700
C1546       C  0.12859973  0.03139286  0.15399636    -0.10900
C1547       C  0.06504947  0.01878544  0.11685479     0.05600
H1548       H  0.10362930  0.10362636  0.12661955     0.07500
H1549       H  0.14655159  0.13567823  0.14985076     0.11000
H1550       H  0.13522983  0.01095203  0.16162193     0.11300
H1551       H  0.09069026  0.97818986  0.13831663     0.07600
C1552       C  0.06924114  0.98862987  0.10730255    -0.11600
C1553       C  0.04399231  0.97252548  0.09379633    -0.10800
C1554       C  0.01448236  0.98667249  0.08957710    -0.01800
C1555       C  0.00970271  0.01599812  0.09932776    -0.11900
C1556       C  0.03441143  0.03160165  0.11282901    -0.10300
H1557       H  0.09282540  0.97842420  0.11004596     0.07600
H1558       H  0.04839400  0.95001609  0.08645626     0.11300
H1559       H  0.98665192  0.02688116  0.09653492     0.11000
H1560       H  0.02954398  0.05388285  0.12012738     0.07600
C1561       C  0.23750651  0.27158392  0.20197516    -0.11500
C1562       C  0.20112984  0.27657334  0.19847346     0.05600
C1563       C  0.16114428  0.23916271  0.19457106    -0.10300
C1564       C  0.15852435  0.19856843  0.19282940    -0.12000
C1565       C  0.19551308  0.19414665  0.19527458    -0.01700
C1566       C  0.23462151  0.23049365  0.20047198    -0.10900
C1567       C  0.20536700  0.32073577  0.19762034     0.05600
H1568       H  0.13213457  0.24151894  0.19231465     0.07500
H1569       H  0.12780877  0.17077331  0.18901838     0.11000
H1570       H  0.26360425  0.22779930  0.20235455     0.11300
H1571       H  0.26882651  0.29978098  0.20499520     0.07600
C1572       C  0.23182919  0.35407865  0.20813397    -0.11600
C1573       C  0.23646688  0.39583926  0.20688219    -0.10800
C1574       C  0.21470891  0.40517065  0.19509009    -0.01800
C1575       C  0.18811917  0.37173178  0.18462435    -0.11900
C1576       C  0.18365995  0.33013609  0.18583887    -0.10300
H1577       H  0.24864778  0.34780983  0.21741417     0.07600
H1578       H  0.25703680  0.42074904  0.21521268     0.11300
H1579       H  0.17078649  0.37763659  0.17542852     0.11000
H1580       H  0.16375423  0.30553229  0.17732115     0.07600
C1581       C  0.34058609  0.00429863  0.35136402    -0.11500
C1582       C  0.30233380  0.00085921  0.35782949     0.05600
C1583       C  0.30591689  0.03573754  0.36690567    -0.10300
C1584       C  0.34661011  0.07422699  0.36872081    -0.12000
C1585       C  0.38435900  0.07851143  0.36145063    -0.01700
C1586       C  0.38099280  0.04266378  0.35307574    -0.10900
C1587       C  0.25901741  0.96167851  0.35435862     0.05600
H1588       H  0.27704477  0.03398826  0.37206295     0.07500
H1589       H  0.34817440  0.10123290  0.37529829     0.11000
H1590       H  0.40954560  0.04447338  0.34760469     0.11300
H1591       H  0.33914699  0.97745431  0.34471571     0.07600
C1592       C  0.25048790  0.94375821  0.33936364    -0.11600
C1593       C  0.21198337  0.90467966  0.33613716    -0.10800
C1594       C  0.18072675  0.88253662  0.34778994    -0.01800
C1595       C  0.18768149  0.90179208  0.36256230    -0.11900
C1596       C  0.22662974  0.94106884  0.36583757    -0.10300
H1597       H  0.27407807  0.95962285  0.33013051     0.07600
H1598       H  0.20719461  0.89123733  0.32454017     0.11300
H1599       H  0.16404878  0.88551991  0.37174926     0.11000
H1600       H  0.23219044  0.95427372  0.37748007     0.07600
C1601       C  0.17239195  0.73732210  0.30154920    -0.11500
C1602       C  0.13807510  0.70746898  0.29194705     0.05600
C1603       C  0.09470171  0.69589984  0.29589380    -0.10300
C1604       C  0.08633903  0.71550310  0.30865197    -0.12000
C1605       C  0.12124301  0.74753640  0.31748776    -0.01700
C1606       C  0.16415490  0.75743873  0.31397605    -0.10900
C1607       C  0.14834992  0.69024262  0.27766798     0.05600
H1608       H  0.06734957  0.67303239  0.28882015     0.07500
H1609       H  0.05289257  0.70708452  0.31117876     0.11000
H1610       H  0.19166992  0.78118695  0.32081565     0.11300
H1611       H  0.20599029  0.74573115  0.29938984     0.07600
C1612       C  0.18762370  0.71675514  0.26954447    -0.11600
C1613       C  0.19884783  0.70075182  0.25659369    -0.10800
C1614       C  0.17087167  0.65788103  0.25116622    -0.01800
C1615       C  0.13081229  0.63171904  0.25889387    -0.11900
C1616       C  0.11975480  0.64764553  0.27202911    -0.10300
H1617       H  0.20987465  0.75026369  0.27310439     0.07600
H1618       H  0.22964142  0.72220843  0.25083968     0.11300
H1619       H  0.10825538  0.59865109  0.25495488     0.11000
H1620       H  0.08928898  0.62616745  0.27794177     0.07600
C1621       C  0.01270930  0.84094745  0.41427415    -0.11500
C1622       C  0.98086233  0.81388994  0.42518851     0.05600
C1623       C  0.95755657  0.76827816  0.42266879    -0.10300
C1624       C  0.96369683  0.75042975  0.40914274    -0.12000
C1625       C  0.99383176  0.77756923  0.39784794    -0.01700
C1626       C  0.01933375  0.82288027  0.40075018    -0.10900
C1627       C  0.97013557  0.83277137  0.43879055     0.05600
H1628       H  0.93393320  0.74625919  0.43106444     0.07500
H1629       H  0.94427118  0.71521738  0.40744393     0.11000
H1630       H  0.04298985  0.84452701  0.39228971     0.11300
H1631       H  0.03123678  0.87622594  0.41585623     0.07600
C1632       C  0.00288015  0.86938282  0.44681579    -0.11600
C1633       C  0.99218901  0.88605796  0.45979726    -0.10800
C1634       C  0.94860093  0.86624538  0.46504961    -0.01800
C1635       C  0.91583736  0.83023827  0.45682334    -0.11900
C1636       C  0.92642119  0.81391397  0.44383810    -0.10300
H1637       H  0.03688349  0.88454609  0.44328427     0.07600
H1638       H  0.01818002  0.91381654  0.46590394     0.11300
H1639       H  0.88180816  0.81450633  0.46039989     0.11000
H1640       H  0.90012770  0.78654084  0.43768829     0.07600
C1641       C  0.84579710  0.60820483  0.36128593    -0.11500
C1642       C  0.85112844  0.57240114  0.35722143     0.05600
C1643       C  0.89355888  0.57997193  0.35403910    -0.10300
C1644       C  0.93006819  0.62213073  0.35575356    -0.12000
C1645       C  0.92459162  0.65701127  0.36084716    -0.01700
C1646       C  0.88218196  0.64995093  0.36326020    -0.10900
C1647       C  0.81275698  0.52716447  0.35757852     0.05600
H1648       H  0.89869106  0.55299742  0.35097177     0.07500
H1649       H  0.96264350  0.62696819  0.35393907     0.11000
H1650       H  0.87727395  0.67661522  0.36700959     0.11300
H1651       H  0.81345021  0.60363712  0.36340617     0.07600
C1652       C  0.78190114  0.51511943  0.36957143    -0.11600
C1653       C  0.74519825  0.47317525  0.37009451    -0.10800
C1654       C  0.73824106  0.44185175  0.35865114    -0.01800
C1655       C  0.76960235  0.45350329  0.34677363    -0.11900
C1656       C  0.80659612  0.49576342  0.34626913    -0.10300
H1657       H  0.78627507  0.53816059  0.37868862     0.07600
H1658       H  0.72212334  0.46547630  0.37949987     0.11300
H1659       H  0.76535391  0.43019480  0.33777958     0.11000
H1660       H  0.82988340  0.50413856  0.33689281     0.07600
C1661       C  0.14981075  0.15785353  0.01691728    -0.11500
C1662       C  0.15926830  0.18695511  0.02939729     0.05600
C1663       C  0.13043081  0.17328495  0.04210732    -0.10300
C1664       C  0.09174805  0.13286461  0.04195138    -0.12000
C1665       C  0.08106888  0.10457026  0.02917512    -0.01700
C1666       C  0.11108587  0.11696783  0.01682133    -0.10900
C1667       C  0.19780985  0.23216085  0.02916066     0.05600
H1668       H  0.13748392  0.19415707  0.05218037     0.07500
H1669       H  0.06998543  0.12407309  0.05182919     0.11000
H1670       H  0.10411728  0.09566630  0.00687781     0.11300
H1671       H  0.17144758  0.16727535  0.00699209     0.07600
C1672       C  0.23870194  0.24118242  0.02315791    -0.11600
C1673       C  0.27550681  0.28340384  0.02455741    -0.10800
C1674       C  0.27187138  0.31689991  0.03209621    -0.01800
C1675       C  0.23043120  0.30843463  0.03710636    -0.11900
C1676       C  0.19391156  0.26678950  0.03556526    -0.10300
H1677       H  0.24270645  0.21527370  0.01803962     0.07600
H1678       H  0.30707285  0.28917548  0.02050466     0.11300
H1679       H  0.22633989  0.33383769  0.04263903     0.11000
H1680       H  0.16261672  0.26153079  0.03971816     0.07600
C1681       C  0.33643288  0.53458838  0.11390444    -0.11500
C1682       C  0.30460059  0.49969658  0.10502395     0.05600
C1683       C  0.26010130  0.48152984  0.10906971    -0.10300
C1684       C  0.24789181  0.49608732  0.12220040    -0.12000
C1685       C  0.27986069  0.52952047  0.13151791    -0.01700
C1686       C  0.32418030  0.54945959  0.12698224    -0.10900
C1687       C  0.31746285  0.48017762  0.09219947     0.05600
H1688       H  0.23464533  0.45544465  0.10219512     0.07500
H1689       H  0.21342396  0.48081815  0.12514085     0.11000
H1690       H  0.34964045  0.57558312  0.13384430     0.11300
H1691       H  0.37093248  0.54920866  0.11112168     0.07600
C1692       C  0.35164246  0.50632545  0.08183078    -0.11600
C1693       C  0.36178661  0.48693971  0.06945558    -0.10800
C1694       C  0.33770491  0.44122624  0.06726655    -0.01800
C1695       C  0.30498538  0.41523564  0.07804761    -0.11900
C1696       C  0.29512664  0.43438502  0.09034175    -0.10300
H1697       H  0.36956550  0.54175068  0.08300579     0.07600
H1698       H  0.38713209  0.50769785  0.06130581     0.11300
H1699       H  0.28638424  0.37979712  0.07687598     0.11000
H1700       H  0.26972344  0.41316666  0.09839812     0.07600
C1701       C  0.45757400  0.29966534  0.94289051    -0.11500
C1702       C  0.48466368  0.34270160  0.94837663     0.05600
C1703       C  0.51962206  0.37265690  0.93907962    -0.10300
C1704       C  0.52862470  0.35966866  0.92496187    -0.12000
C1705       C  0.50274851  0.31631472  0.91962881    -0.01700
C1706       C  0.46659529  0.28653200  0.92863833    -0.10900
C1707       C  0.47804178  0.35706005  0.96383542     0.05600
H1708       H  0.54037006  0.40636843  0.94279319     0.07500
H1709       H  0.55632344  0.38372132  0.91829209     0.11000
H1710       H  0.44596263  0.25286093  0.92487370     0.11300
H1711       H  0.43034142  0.27592012  0.94981333     0.07600
C1712       C  0.43625958  0.34746925  0.96898877    -0.11600
C1713       C  0.43182894  0.36650359  0.98267865    -0.10800
C1714       C  0.46914943  0.39553204  0.99131511    -0.01800
C1715       C  0.51039619  0.40278417  0.98661134    -0.11900
C1716       C  0.51473345  0.38357594  0.97311472    -0.10300
H1717       H  0.40740412  0.32706065  0.96207774     0.07600
H1718       H  0.39958958  0.36025154  0.98607869     0.11300
H1719       H  0.53963050  0.42425274  0.99319116     0.11000
H1720       H  0.54717971  0.39052382  0.96967634     0.07600
C1721       C  0.57942370  0.59512594  0.03856269    -0.11500
C1722       C  0.61248280  0.61406558  0.02723554     0.05600
C1723       C  0.60784942  0.59052971  0.01354025    -0.10300
C1724       C  0.57139362  0.54898670  0.01124438    -0.12000
C1725       C  0.53828824  0.52977330  0.02254184    -0.01700
C1726       C  0.54261444  0.55333660  0.03623447    -0.10900
C1727       C  0.65185875  0.65819357  0.02943450     0.05600
H1728       H  0.63226464  0.60453395  0.00445530     0.07500
H1729       H  0.56898967  0.53214447  0.00046157     0.11000
H1730       H  0.51778507  0.53936233  0.04517954     0.11300
H1731       H  0.58232591  0.61239472  0.04928421     0.07600
C1732       C  0.64834921  0.69371011  0.03529506    -0.11600
C1733       C  0.68531898  0.73602702  0.03596917    -0.10800
C1734       C  0.72622118  0.74345322  0.03066016    -0.01800
C1735       C  0.72989527  0.70757406  0.02541083    -0.11900
C1736       C  0.69327064  0.66551664  0.02485558    -0.10300
H1737       H  0.61679219  0.68905364  0.03883732     0.07600
H1738       H  0.68163724  0.76310749  0.04010784     0.11300
H1739       H  0.76122293  0.71209296  0.02160101     0.11000
H1740       H  0.69726616  0.63868314  0.02064572     0.07600
C1741       C  0.06947972  0.47500285  0.61670152    -0.11500
C1742       C  0.06404078  0.50448406  0.60722197     0.05600
C1743       C  0.08139111  0.54814390  0.61229959    -0.10300
C1744       C  0.10479744  0.56220241  0.62626007    -0.12000
C1745       C  0.11164608  0.53297305  0.63536726    -0.01700
C1746       C  0.09308709  0.48906623  0.63050201    -0.10900
C1747       C  0.04062305  0.48921779  0.59211518     0.05600
H1748       H  0.07798017  0.57178828  0.60529501     0.07500
H1749       H  0.11859419  0.59625233  0.62967748     0.11000
H1750       H  0.09704469  0.46540523  0.63730877     0.11300
H1751       H  0.05542212  0.44078789  0.61348210     0.07600
C1752       C  0.04450298  0.45750496  0.58342143    -0.11600
C1753       C  0.01927012  0.43925590  0.57017459    -0.10800
C1754       C  0.98988016  0.45261617  0.56504573    -0.01800
C1755       C  0.98800993  0.48647575  0.57301847    -0.11900
C1756       C  0.01301057  0.50447485  0.58651122    -0.10300
H1757       H  0.06657892  0.44608973  0.58698976     0.07600
H1758       H  0.02214103  0.41382779  0.56409284     0.11300
H1759       H  0.96565369  0.49739921  0.56929757     0.11000
H1760       H  0.00921542  0.52888594  0.59289389     0.07600
C1761       C  0.92370774  0.17803226  0.54291837    -0.11500
C1762       C  0.89585085  0.18634298  0.53363107     0.05600
C1763       C  0.86875523  0.15450057  0.52275009    -0.10300
C1764       C  0.86986076  0.11546032  0.52108257    -0.12000
C1765       C  0.89799610  0.10733991  0.53030154    -0.01700
C1766       C  0.92471451  0.13904302  0.54130055    -0.10900
C1767       C  0.89659712  0.22887152  0.53499140     0.05600
H1768       H  0.84652275  0.15966619  0.51557157     0.07500
H1769       H  0.84847237  0.09155864  0.51261874     0.11000
H1770       H  0.94683494  0.13401187  0.54859896     0.11300
H1771       H  0.94558727  0.20215526  0.55122983     0.07600
C1772       C  0.90186297  0.24877912  0.54955295    -0.11600
C1773       C  0.90798676  0.29103813  0.55074337    -0.10800
C1774       C  0.90831114  0.31417293  0.53743937    -0.01800
C1775       C  0.90048508  0.29351214  0.52294457    -0.11900
C1776       C  0.89492680  0.25126497  0.52171760    -0.10300
H1777       H  0.90214875  0.23201952  0.56003353     0.07600
H1778       H  0.91321640  0.30597670  0.56210413     0.11300
H1779       H  0.90076390  0.31077848  0.51252261     0.11000
H1780       H  0.89127197  0.23697335  0.51031742     0.07600
C1781       C  0.87980968  0.68218704  0.50859410    -0.11500
C1782       C  0.88591237  0.66348471  0.52209595     0.05600
C1783       C  0.89486233  0.68670252  0.53611213    -0.10300
C1784       C  0.89727450  0.72759856  0.53664693    -0.12000
C1785       C  0.89043241  0.74589569  0.52319793    -0.01700
C1786       C  0.88185030  0.72285540  0.50915039    -0.10900
C1787       C  0.88229459  0.61962655  0.52147811     0.05600
H1788       H  0.89916882  0.67286608  0.54671729     0.07500
H1789       H  0.90364394  0.74451128  0.54765949     0.11000
H1790       H  0.87703997  0.73641823  0.49855938     0.11300
H1791       H  0.87370556  0.66545761  0.49755342     0.07600
C1792       C  0.84955527  0.58633550  0.51237118    -0.11600
C1793       C  0.84755450  0.54599577  0.51078035    -0.10800
C1794       C  0.87817327  0.53773095  0.51828125    -0.01800
C1795       C  0.90971073  0.57014050  0.52802148    -0.11900
C1796       C  0.91181817  0.61088233  0.52957976    -0.10300
H1797       H  0.82560549  0.59160860  0.50633788     0.07600
H1798       H  0.82222933  0.52140549  0.50342215     0.11300
H1799       H  0.93366370  0.56464201  0.53393647     0.11000
H1800       H  0.93745554  0.63603638  0.53667724     0.07600
C1801       C  0.81315658  0.42332945  0.45725572    -0.11500
C1802       C  0.78230306  0.37822021  0.45658135     0.05600
C1803       C  0.77975217  0.35123878  0.46907325    -0.10300
C1804       C  0.80583370  0.36950336  0.48229257    -0.12000
C1805       C  0.83437298  0.41501170  0.48324886    -0.01700
C1806       C  0.83853148  0.44152312  0.47048119    -0.10900
C1807       C  0.75120564  0.36029892  0.44333801     0.05600
H1808       H  0.75612895  0.31640104  0.46896291     0.07500
H1809       H  0.80185979  0.34853475  0.49206907     0.11000
H1810       H  0.86073113  0.47671529  0.47089588     0.11300
H1811       H  0.81695119  0.44486937  0.44769255     0.07600
C1812       C  0.73401472  0.38516026  0.43680460    -0.11600
C1813       C  0.70422928  0.36852515  0.42456482    -0.10800
C1814       C  0.69051786  0.32638300  0.41855812    -0.01800
C1815       C  0.70763286  0.30143478  0.42508174    -0.11900
C1816       C  0.73765460  0.31822056  0.43733595    -0.10300
H1817       H  0.74296253  0.41732529  0.44132817     0.07600
H1818       H  0.69183287  0.38878207  0.41987147     0.11300
H1819       H  0.69802142  0.26898166  0.42068467     0.11000
H1820       H  0.75059903  0.29842178  0.44200021     0.07600
C1821       C  0.60320888  0.51624226  0.86843127    -0.11500
C1822       C  0.56918934  0.52120813  0.86214565     0.05600
C1823       C  0.53463778  0.48589901  0.85429607    -0.10300
C1824       C  0.53341659  0.44560436  0.85322947    -0.12000
C1825       C  0.56673331  0.44023712  0.86001646    -0.01700
C1826       C  0.60197172  0.47614000  0.86741014    -0.10900
C1827       C  0.56935387  0.56277780  0.86453591     0.05600
H1828       H  0.50801879  0.48910866  0.84943468     0.07500
H1829       H  0.50586428  0.41835879  0.84748829     0.11000
H1830       H  0.62852912  0.47318291  0.87247970     0.11300
H1831       H  0.63059211  0.54338762  0.87428891     0.07600
C1832       C  0.57766452  0.58132600  0.87938511    -0.11600
C1833       C  0.58236201  0.62256245  0.88170533    -0.10800
C1834       C  0.57872244  0.64614678  0.86922487    -0.01800
C1835       C  0.56811412  0.62670779  0.85446103    -0.11900
C1836       C  0.56345489  0.58513575  0.85212618    -0.10300
H1837       H  0.58133957  0.56416020  0.88917463     0.07600
H1838       H  0.58961501  0.63631445  0.89328312     0.11300
H1839       H  0.56509050  0.64425376  0.84467017     0.11000
H1840       H  0.55696648  0.57122342  0.84057565     0.07600
C1841       C  0.75682813  0.87799209  0.94461788    -0.11500
C1842       C  0.72508162  0.83319686  0.94317608     0.05600
C1843       C  0.71915365  0.80491846  0.95565877    -0.10300
C1844       C  0.74582412  0.82030927  0.96876599    -0.12000
C1845       C  0.77827130  0.86465940  0.96998247    -0.01700
C1846       C  0.78290124  0.89363937  0.95796699    -0.10900
C1847       C  0.69980497  0.81504062  0.92851916     0.05600
H1848       H  0.69407842  0.77056085  0.95527464     0.07500
H1849       H  0.74097987  0.79747103  0.97800763     0.11000
H1850       H  0.80776260  0.92806374  0.95865523     0.11300
H1851       H  0.76260184  0.90069162  0.93524600     0.07600
C1852       C  0.68630111  0.83909610  0.91919483    -0.11600
C1853       C  0.66179977  0.82055910  0.90560187    -0.10800
C1854       C  0.65034393  0.77763994  0.90111972    -0.01800
C1855       C  0.66484655  0.75432939  0.91031763    -0.11900
C1856       C  0.68924310  0.77273134  0.92368368    -0.10300
H1857       H  0.69386733  0.87183899  0.92254279     0.07600
H1858       H  0.65145792  0.83953889  0.89874032     0.11300
H1859       H  0.65730736  0.72137853  0.90727310     0.11000
H1860       H  0.70019514  0.75362667  0.93015738     0.07600
C1861       C  0.38851604  0.70761512  0.77470143    -0.11500
C1862       C  0.41466741  0.68928193  0.77868111     0.05600
C1863       C  0.41035539  0.65330218  0.77012297    -0.10300
C1864       C  0.38126222  0.63682095  0.75755982    -0.12000
C1865       C  0.35595875  0.65604037  0.75336158    -0.01700
C1866       C  0.35964034  0.69129956  0.76220850    -0.10900
C1867       C  0.44663388  0.70869742  0.79159122     0.05600
H1868       H  0.43023298  0.63866547  0.77290801     0.07500
H1869       H  0.37928060  0.60967687  0.75095117     0.11000
H1870       H  0.34026241  0.70652062  0.75946396     0.11300
H1871       H  0.39038370  0.73473946  0.78129458     0.07600
C1872       C  0.47147542  0.75455032  0.79309821    -0.11600
C1873       C  0.49769374  0.77360801  0.80607701    -0.10800
C1874       C  0.50003620  0.74739298  0.81789803    -0.01800
C1875       C  0.47754938  0.70151323  0.81598748    -0.11900
C1876       C  0.45091500  0.68226613  0.80291278    -0.10300
H1877       H  0.46981743  0.77578955  0.78436677     0.07600
H1878       H  0.51535758  0.80910906  0.80704163     0.11300
H1879       H  0.47883184  0.68055401  0.82491194     0.11000
H1880       H  0.43215100  0.64678958  0.80201103     0.07600
C1881       C  0.54220607  0.01154521  0.84392274    -0.11500
C1882       C  0.55887271  0.99808611  0.85626200     0.05600
C1883       C  0.57817508  0.02674925  0.86888112    -0.10300
C1884       C  0.57939011  0.06715683  0.86936592    -0.12000
C1885       C  0.56102722  0.07964228  0.85729847    -0.01700
C1886       C  0.54294720  0.05155298  0.84448600    -0.10900
C1887       C  0.55476734  0.95380564  0.85599125     0.05600
H1888       H  0.59122063  0.01749781  0.87860364     0.07500
H1889       H  0.59391900  0.08817472  0.87936042     0.11000
H1890       H  0.52924048  0.06037917  0.83483995     0.11300
H1891       H  0.52843594  0.99111075  0.83375534     0.07600
C1892       C  0.51779929  0.91841523  0.84909846    -0.11600
C1893       C  0.51479219  0.87759687  0.84762006    -0.10800
C1894       C  0.54823879  0.87065501  0.85324037    -0.01800
C1895       C  0.58405202  0.90495361  0.86099779    -0.11900
C1896       C  0.58747739  0.94637091  0.86226458    -0.10300
H1897       H  0.49113624  0.92224662  0.84467491     0.07600
H1898       H  0.48636195  0.85146468  0.84183531     0.11300
H1899       H  0.61028114  0.90036575  0.86541002     0.11000
H1900       H  0.61644278  0.97285770  0.86764151     0.07600
C1901       C  0.98175244  0.36492859  0.70122748    -0.11500
C1902       C  0.98197644  0.32983191  0.69348155     0.05600
C1903       C  0.02169957  0.33590850  0.68743565    -0.10300
C1904       C  0.05976269  0.37673585  0.68829922    -0.12000
C1905       C  0.05919247  0.41236548  0.69541062    -0.01700
C1906       C  0.02015938  0.40587326  0.70224950    -0.10900
C1907       C  0.94080329  0.28771094  0.69080967     0.05600
H1908       H  0.02322892  0.30915999  0.68180146     0.07500
H1909       H  0.08964586  0.38048916  0.68326582     0.11000
H1910       H  0.01893396  0.43280200  0.70787314     0.11300
H1911       H  0.95160347  0.36123641  0.70595863     0.07600
C1912       C  0.90836095  0.26836138  0.70233008    -0.11600
C1913       C  0.87018731  0.22798293  0.69959921    -0.10800
C1914       C  0.86405737  0.20632966  0.68533519    -0.01800
C1915       C  0.89614370  0.22634912  0.67376531    -0.11900
C1916       C  0.93384266  0.26652105  0.67643943    -0.10300
H1917       H  0.91293125  0.28393408  0.71353620     0.07600
H1918       H  0.84604652  0.21329017  0.70873682     0.11300
H1919       H  0.89222199  0.21095436  0.66255300     0.11000
H1920       H  0.95756039  0.28112263  0.66716710     0.07600
C1921       C  0.84553718  0.05675191  0.63923062    -0.11500
C1922       C  0.81127954  0.03170343  0.62884447     0.05600
C1923       C  0.76904308  0.02477926  0.63205658    -0.10300
C1924       C  0.76201971  0.04463474  0.64501628    -0.12000
C1925       C  0.79727384  0.07194633  0.65473929    -0.01700
C1926       C  0.83873275  0.07697838  0.65189989    -0.10900
C1927       C  0.82111428  0.01566064  0.61433321     0.05600
H1928       H  0.74201211  0.00563602  0.62423923     0.07500
H1929       H  0.72972921  0.04033279  0.64702763     0.11000
H1930       H  0.86624773  0.09717873  0.65941203     0.11300
H1931       H  0.87807718  0.06155620  0.63737487     0.07600
C1932       C  0.86049789  0.04284783  0.60644073    -0.11600
C1933       C  0.87140942  0.02831363  0.59307933    -0.10800
C1934       C  0.84297211  0.98630193  0.58706620    -0.01800
C1935       C  0.80319443  0.95907376  0.59483417    -0.11900
C1936       C  0.79232908  0.97367414  0.60834384    -0.10300
H1937       H  0.88294365  0.07577848  0.61053397     0.07600
H1938       H  0.90214956  0.05035737  0.58740453     0.11300
H1939       H  0.78053681  0.92646356  0.59052396     0.11000
H1940       H  0.76186635  0.95192936  0.61422867     0.07600
C1941       C  0.52672109  0.93658227  0.70404940    -0.11500
C1942       C  0.52993667  0.90175191  0.69744638     0.05600
C1943       C  0.57094254  0.91012179  0.69175215    -0.10300
C1944       C  0.60809026  0.95213488  0.69319951    -0.12000
C1945       C  0.60477222  0.98606814  0.70053968    -0.01700
C1946       C  0.56361405  0.97793920  0.70570361    -0.10900
C1947       C  0.49029785  0.85719698  0.69685933     0.05600
H1948       H  0.57458238  0.88401636  0.68661174     0.07500
H1949       H  0.63954863  0.95762609  0.68913351     0.11000
H1950       H  0.55988899  0.00367606  0.71114408     0.11300
H1951       H  0.49552376  0.93193881  0.70803801     0.07600
C1952       C  0.45958677  0.84326642  0.70899634    -0.11600
C1953       C  0.42034457  0.80347610  0.70810706    -0.10800
C1954       C  0.41092765  0.77581336  0.69519553    -0.01800
C1955       C  0.44225388  0.78880987  0.68326024    -0.11900
C1956       C  0.48156163  0.82915022  0.68407907    -0.10300
H1957       H  0.46574659  0.86327638  0.71925514     0.07600
H1958       H  0.39743837  0.79441209  0.71764479     0.11300
H1959       H  0.43617838  0.76814053  0.67319044     0.11000
H1960       H  0.50444429  0.83888161  0.67451792     0.07600
C1961       C  0.65126203  0.10689142  0.76069821    -0.11500
C1962       C  0.66193875  0.15108022  0.76079375     0.05600
C1963       C  0.68223754  0.17728414  0.74769414    -0.10300
C1964       C  0.68958025  0.15879271  0.73443408    -0.12000
C1965       C  0.67631451  0.11391239  0.73415252    -0.01700
C1966       C  0.65802545  0.08844108  0.74747699    -0.10900
C1967       C  0.64866114  0.16825005  0.77413350     0.05600
H1968       H  0.69055428  0.21140531  0.74746899     0.07500
H1969       H  0.70352621  0.17886986  0.72420486     0.11000
H1970       H  0.64813671  0.05386788  0.74755119     0.11300
H1971       H  0.63652862  0.08623704  0.77075097     0.07600
C1972       C  0.60674711  0.14252371  0.78059290    -0.11600
C1973       C  0.59354201  0.15766776  0.79323511    -0.10800
C1974       C  0.62193845  0.19902004  0.79977492    -0.01800
C1975       C  0.66386932  0.22503885  0.79322897    -0.11900
C1976       C  0.67705303  0.20981793  0.78047763    -0.10300
H1977       H  0.58388727  0.11065551  0.77575874     0.07600
H1978       H  0.56100111  0.13672612  0.79789966     0.11300
H1979       H  0.68661345  0.25701692  0.79800079     0.11000
H1980       H  0.70961585  0.23016234  0.77573780     0.07600
loop_ 
_geom_bond_atom_site_label_1 
_geom_bond_atom_site_label_2 
_geom_bond_distance 
_geom_bond_site_symmetry_2 
_ccdc_geom_bond_type 
C1            N2   1.357       .  A
C1            N6   1.353       .  A
C1         C1965   1.469       .  S
N2            C3   1.362       .  A
C3            N4   1.363       .  A
C3           C11   1.466       .  S
N4            C5   1.358       .  A
C5            N6   1.354       .  A
C5         C1945   1.476   1_545  S
C7            N8   1.353       .  A
C7           N12   1.356       .  A
C7         C1925   1.471       .  S
N8            C9   1.353       .  A
C9           N10   1.359       .  A
C9         C1914   1.479       .  S
N10          C11   1.363       .  A
C11          N12   1.361       .  A
C13          N14   1.359       .  A
C13          N18   1.352       .  A
C13        C1874   1.481       .  S
N14          C15   1.366       .  A
C15          N16   1.363       .  A
C15          C23   1.472       .  S
N16          C17   1.360       .  A
C17          N18   1.353       .  A
C17        C1894   1.475       .  S
C19          N20   1.353       .  A
C19          N24   1.364       .  A
C19        C1854   1.489       .  S
N20          C21   1.350       .  A
C21          N22   1.354       .  A
C21        C1834   1.472       .  S
N22          C23   1.360       .  A
C23          N24   1.369       .  A
C25          N26   1.349       .  A
C25          N30   1.358       .  A
C25        C1805   1.473       .  S
N26          C27   1.352       .  A
C27          N28   1.362       .  A
C27        C1794   1.478       .  S
N28          C29   1.365       .  A
C29          N30   1.365       .  A
C29          C33   1.474       .  S
C31          N32   1.362       .  A
C31          N36   1.353       .  A
C31        C1754   1.480       .  S
N32          C33   1.366       .  A
C33          N34   1.363       .  A
N34          C35   1.358       .  A
C35          N36   1.351       .  A
C35        C1774   1.475       .  S
C37          N38   1.356       .  A
C37          N42   1.355       .  A
C37        C1714   1.479   1_554  S
N38          C39   1.361       .  A
C39          N40   1.363       .  A
C39          C45   1.471       .  S
N40          C41   1.362       .  A
C41          N42   1.357       .  A
C41        C1725   1.485       .  S
C43          N44   1.362       .  A
C43          N48   1.352       .  A
C43        C1694   1.479       .  S
N44          C45   1.366       .  A
C45          N46   1.363       .  A
N46          C47   1.356       .  A
C47          N48   1.351       .  A
C47        C1674   1.477       .  S
C49          N50   1.362   1_655  A
C49          N54   1.356       .  A
C49        C1625   1.481       .  S
N50          C51   1.364       .  A
C51          N52   1.360   1_455  A
C51          C57   1.471       .  S
N52          C53   1.356       .  A
C53          N54   1.353       .  A
C53        C1645   1.469       .  S
C55          N56   1.359       .  A
C55          N60   1.354       .  A
C55        C1605   1.481       .  S
N56          C57   1.364       .  A
C57          N58   1.362       .  A
N58          C59   1.359       .  A
C59          N60   1.355       .  A
C59        C1594   1.480       .  S
C61          N62   1.352       .  A
C61          N66   1.358       .  A
C61        C1545   1.478       .  S
N62          C63   1.352       .  A
C63          N64   1.358       .  A
C63        C1565   1.471       .  S
N64          C65   1.363       .  A
C65          N66   1.362       .  A
C65          C69   1.468       .  S
C67          N68   1.358       .  A
C67          N72   1.353       .  A
C67        C1505   1.479       .  S
N68          C69   1.361       .  A
C69          N70   1.363       .  A
N70          C71   1.359       .  A
C71          N72   1.353       .  A
C71        C1534   1.480   1_545  S
C73          N74   1.352       .  A
C73          N78   1.360       .  A
C73        C1485   1.479       .  S
N74          C75   1.351   1_455  A
C75          N76   1.359   1_655  A
C75        C1465   1.479       .  S
N76          C77   1.364       .  A
C77          N78   1.364       .  A
C77          C83   1.472       .  S
C79          N80   1.354       .  A
C79          N84   1.358       .  A
C79        C1445   1.477       .  S
N80          C81   1.356       .  A
C81          N82   1.360       .  A
C81        C1434   1.483       .  S
N82          C83   1.363       .  A
C83          N84   1.363       .  A
C85          N86   1.359       .  A
C85          N90   1.354       .  A
C85        C1405   1.477       .  S
N86          C87   1.364       .  A
C87          N88   1.362       .  A
C87          C93   1.472       .  S
N88          C89   1.360       .  A
C89          N90   1.355       .  A
C89        C1394   1.479       .  S
C91          N92   1.362       .  A
C91          N96   1.351       .  A
C91        C1345   1.483       .  S
N92          C93   1.367       .  A
C93          N94   1.363       .  A
N94          C95   1.357       .  A
C95          N96   1.350       .  A
C95        C1365   1.475       .  S
C97          N98   1.354       .  A
C97         N102   1.356       .  A
C97        C1325   1.467       .  S
N98          C99   1.356       .  A
C99         N100   1.359       .  A
C99        C1314   1.475       .  S
N100        C101   1.361       .  A
C101        N102   1.360       .  A
C101        C105   1.468       .  S
C103        N104   1.359       .  A
C103        N108   1.352       .  A
C103       C1274   1.480       .  S
N104        C105   1.365       .  A
C105        N106   1.363       .  A
N106        C107   1.357       .  A
C107        N108   1.351       .  A
C107       C1294   1.480       .  S
C109        N110   1.353       .  A
C109        N114   1.360       .  A
C109       C1225   1.481   1_564  S
N110        C111   1.354       .  A
C111        N112   1.361       .  A
C111       C1245   1.488       .  S
N112        C113   1.365       .  A
C113        N114   1.366       .  A
C113        C117   1.475       .  S
C115        N116   1.361       .  A
C115        N120   1.355       .  A
C115       C1214   1.484       .  S
N116        C117   1.365       .  A
C117        N118   1.364       .  A
N118        C119   1.360       .  A
C119        N120   1.355       .  A
C119       C1185   1.483       .  S
C121        N122   1.357       .  A
C121        N126   1.353       .  A
C121       C1145   1.471       .  S
N122        C123   1.360       .  A
C123        N124   1.363       .  A
C123        C131   1.467       .  S
N124        C125   1.359       .  A
C125        N126   1.352       .  A
C125       C1165   1.470       .  S
C127        N128   1.352       .  A
C127        N132   1.357       .  A
C127       C1125   1.479       .  S
N128        C129   1.353   1_455  A
C129        N130   1.359   1_655  A
C129       C1114   1.481       .  S
N130        C131   1.364       .  A
C131        N132   1.362       .  A
C133        N134   1.359       .  A
C133        N138   1.354       .  A
C133       C1065   1.477       .  S
N134        C135   1.363       .  A
C135        N136   1.362       .  A
C135        C141   1.468       .  S
N136        C137   1.358       .  A
C137        N138   1.354       .  A
C137       C1085   1.478       .  S
C139        N140   1.359       .  A
C139        N144   1.354   1_545  A
C139       C1034   1.481       .  S
N140        C141   1.363       .  A
C141        N142   1.362       .  A
N142        C143   1.358   1_545  A
C143        N144   1.352       .  A
C143       C1045   1.473       .  S
C145        N146   1.360       .  A
C145        N150   1.354       .  A
C145       C1014   1.482       .  S
N146        C147   1.365       .  A
C147        N148   1.362       .  A
C147        C153   1.473       .  S
N148        C149   1.359       .  A
C149        N150   1.355       .  A
C149        C985   1.475       .  S
C151        N152   1.362       .  A
C151        N156   1.352       .  A
C151        C965   1.479       .  S
N152        C153   1.366       .  A
C153        N154   1.362       .  A
N154        C155   1.357       .  A
C155        N156   1.353       .  A
C155        C954   1.472       .  S
C157        N158   1.356       .  A
C157        N162   1.350       .  A
C157        C925   1.476       .  S
N158        C159   1.363       .  A
C159        N160   1.365       .  A
C159        C165   1.467       .  S
N160        C161   1.360       .  A
C161        N162   1.351       .  A
C161        C905   1.478       .  S
C163        N164   1.359       .  A
C163        N168   1.354   1_545  A
C163        C885   1.478       .  S
N164        C165   1.362       .  A
C165        N166   1.362       .  A
N166        C167   1.356       .  A
C167        N168   1.352   1_545  A
C167        C865   1.476   1_545  S
C169        N170   1.356       .  A
C169        N174   1.353       .  A
C169        C825   1.475       .  S
N170        C171   1.362       .  A
C171        N172   1.365       .  A
C171        C177   1.470       .  S
N172        C173   1.361       .  A
C173        N174   1.355       .  A
C173        C845   1.481       .  S
C175        N176   1.359       .  A
C175        N180   1.352       .  A
C175        C794   1.478       .  S
N176        C177   1.363       .  A
C177        N178   1.365       .  A
N178        C179   1.359       .  A
C179        N180   1.352       .  A
C179        C805   1.481       .  S
C181        N182   1.357       .  A
C181        N186   1.354       .  A
C181        C745   1.479       .  S
N182        C183   1.361       .  A
C183        N184   1.363       .  A
C183        C189   1.468       .  S
N184        C185   1.359       .  A
C185        N186   1.356       .  A
C185        C765   1.478       .  S
C187        N188   1.359       .  A
C187        N192   1.353       .  A
C187        C725   1.480       .  S
N188        C189   1.362       .  A
C189        N190   1.363       .  A
N190        C191   1.357       .  A
C191        N192   1.353       .  A
C191        C705   1.474       .  S
C193        N194   1.359       .  A
C193        N198   1.356       .  A
C193        C694   1.481   1_554  S
N194        C195   1.362       .  A
C195        N196   1.361       .  A
C195        C203   1.469       .  S
N196        C197   1.358       .  A
C197        N198   1.356       .  A
C197        C665   1.483       .  S
C199        N200   1.352       .  A
C199        N204   1.358       .  A
C199        C634   1.475       .  S
N200        C201   1.352       .  A
C201        N202   1.359       .  A
C201        C645   1.476       .  S
N202        C203   1.363       .  A
C203        N204   1.363       .  A
C205        N206   1.361       .  A
C205        N210   1.351       .  A
C205        C585   1.480       .  S
N206        C207   1.367       .  A
C207        N208   1.366       .  A
C207        C215   1.473       .  S
N208        C209   1.359       .  A
C209        N210   1.351       .  A
C209        C614   1.481       .  S
C211        N212   1.354       .  A
C211        N216   1.358   1_655  A
C211        C554   1.480       .  S
N212        C213   1.355       .  A
C213        N214   1.361   1_655  A
C213        C574   1.486       .  S
N214        C215   1.364       .  A
C215        N216   1.363       .  A
O217       Zr253   2.433       .  S
O217        C228   1.292       .  A
O218       Zr252   2.439       .  S
O218        C229   1.292       .  A
O219       Zr225   2.427       .  S
O219        C230   1.291       .  A
O220       Zr225   2.433       .  S
O220        C231   1.290       .  A
O221       Zr255   2.437       .  S
O221        C231   1.293       .  A
O222       Zr254   2.448       .  S
O222        C230   1.294       .  A
O223       Zr225   2.428       .  S
O223        C229   1.291       .  A
O224       Zr225   2.436       .  S
O224        C228   1.292       .  A
Zr225       O226   2.338       .  S
Zr225       O227   2.338       .  S
Zr225       O235   2.335       .  S
Zr225       O233   2.336       .  S
O226       Zr252   2.339       .  S
O226       Zr255   2.335       .  S
O227       Zr253   2.341       .  S
O227       Zr254   2.338       .  S
C228       C1974   1.482       .  S
C229       C1474   1.477       .  S
C230       C1354   1.480       .  S
C231        C565   1.474       .  S
H232        O233   0.965       .  S
O233       Zr252   2.341       .  S
O233       Zr254   2.337       .  S
H234        O235   0.965       .  S
O235       Zr253   2.342       .  S
O235       Zr255   2.337       .  S
O236       Zr252   2.441       .  S
O236        C259   1.294       .  A
O237       Zr253   2.451       .  S
O237        C260   1.294       .  A
O238       Zr254   2.436       .  S
O238        C261   1.292       .  A
O239       Zr255   2.444       .  S
O239        C262   1.295       .  A
O240       Zr255   2.436       .  S
O240        C263   1.292       .  A
O241       Zr254   2.439       .  S
O241        C264   1.294       .  A
O242       Zr256   2.435       .  S
O242        C265   1.292       .  A
O243       Zr256   2.441       .  S
O243        C266   1.294       .  A
O244       Zr254   2.441       .  S
O244        C265   1.294       .  A
O245       Zr255   2.438       .  S
O245        C266   1.293       .  A
O246       Zr252   2.425       .  S
O246        C261   1.291       .  A
O247       Zr253   2.433       .  S
O247        C264   1.291       .  A
O248       Zr253   2.438       .  S
O248        C263   1.293       .  A
O249       Zr252   2.436       .  S
O249        C262   1.292       .  A
O250       Zr256   2.441       .  S
O250        C259   1.292       .  A
O251       Zr256   2.423       .  S
O251        C260   1.291       .  A
Zr252       O258   2.339       .  S
Zr252       O270   2.337       .  S
Zr253       O257   2.338       .  S
Zr253       O268   2.338       .  S
Zr254       O258   2.345       .  S
Zr254       O268   2.341       .  S
Zr255       O257   2.342       .  S
Zr255       O270   2.338       .  S
Zr256       O257   2.337       .  S
Zr256       O258   2.341       .  S
Zr256       O270   2.337       .  S
Zr256       O268   2.343       .  S
C259       C1705   1.486       .  S
C260       C1425   1.479       .  S
C261       C1825   1.472       .  S
C262        C685   1.482       .  S
C263       C1885   1.483       .  S
C264        C934   1.480       .  S
C265        C605   1.480       .  S
C266       C1234   1.486       .  S
H267        O268   0.966       .  S
H269        O270   0.965       .  S
O271       Zr307   2.443   1_556  S
O271        C282   1.294       .  A
O272       Zr306   2.438   1_545  S
O272        C283   1.292       .  A
O273       Zr279   2.441       .  S
O273        C284   1.293       .  A
O274       Zr279   2.428   1_546  S
O274        C285   1.292       .  A
O275       Zr309   2.445   1_546  S
O275        C285   1.293       .  A
O276       Zr308   2.441       .  S
O276        C284   1.294       .  A
O277       Zr279   2.435   1_545  S
O277        C283   1.293       .  A
O278       Zr279   2.437   1_556  S
O278        C282   1.292       .  A
Zr279       O280   2.337       .  S
Zr279       O281   2.341       .  S
Zr279       O289   2.344       .  S
Zr279       O287   2.338       .  S
O280       Zr306   2.338       .  S
O280       Zr309   2.339       .  S
O281       Zr307   2.341       .  S
O281       Zr308   2.339       .  S
C282       C1845   1.477       .  S
C283        C674   1.477       .  S
C284       C1194   1.484       .  S
C285        C545   1.482       .  S
H286        O287   0.966       .  S
O287       Zr306   2.344       .  S
O287       Zr308   2.341       .  S
H288        O289   0.966   1_556  S
O289       Zr307   2.340       .  S
O289       Zr309   2.342       .  S
O290       Zr306   2.433       .  S
O290        C313   1.292       .  A
O291       Zr307   2.433       .  S
O291        C314   1.291       .  A
O292       Zr308   2.440       .  S
O292        C315   1.294       .  A
O293       Zr309   2.434   1_445  S
O293        C316   1.291       .  A
O294       Zr309   2.437   1_556  S
O294        C317   1.293       .  A
O295       Zr308   2.452       .  S
O295        C318   1.294       .  A
O296       Zr310   2.442       .  S
O296        C319   1.294       .  A
O297       Zr310   2.452   1_455  S
O297        C320   1.294       .  A
O298       Zr308   2.431       .  S
O298        C319   1.291       .  A
O299       Zr309   2.435   1_455  S
O299        C320   1.292       .  A
O300       Zr306   2.440   1_545  S
O300        C315   1.292   1_545  A
O301       Zr307   2.432       .  S
O301        C318   1.292       .  A
O302       Zr307   2.446   1_556  S
O302        C317   1.294       .  A
O303       Zr306   2.437   1_445  S
O303        C316   1.293       .  A
O304       Zr310   2.443       .  S
O304        C313   1.293       .  A
O305       Zr310   2.443       .  S
O305        C314   1.294       .  A
Zr306       O312   2.338       .  S
Zr306       O324   2.339       .  S
Zr307       O311   2.341       .  S
Zr307       O322   2.342       .  S
Zr308       O312   2.342       .  S
Zr308       O322   2.342       .  S
Zr309       O311   2.338       .  S
Zr309       O324   2.343       .  S
Zr310       O311   2.340       .  S
Zr310       O312   2.342       .  S
Zr310       O324   2.338       .  S
Zr310       O322   2.339       .  S
C313       C1554   1.478   1_655  S
C314        C654   1.483       .  S
C315       C1025   1.479       .  S
C316       C1665   1.481       .  S
C317       C1454   1.488       .  S
C318       C1734   1.480       .  S
C319        C734   1.475       .  S
C320       C1254   1.479       .  S
H321        O322   0.965       .  S
H323        O324   0.965   1_455  S
O325       Zr361   2.425       .  S
O325        C336   1.291       .  A
O326       Zr360   2.430       .  S
O326        C337   1.291       .  A
O327       Zr333   2.439       .  S
O327        C338   1.294       .  A
O328       Zr333   2.428       .  S
O328        C339   1.291       .  A
O329       Zr363   2.441       .  S
O329        C339   1.294       .  A
O330       Zr362   2.440       .  S
O330        C338   1.293       .  A
O331       Zr333   2.440       .  S
O331        C337   1.294       .  A
O332       Zr333   2.448       .  S
O332        C336   1.294       .  A
Zr333       O334   2.338       .  S
Zr333       O335   2.339       .  S
Zr333       O343   2.343       .  S
Zr333       O341   2.339       .  S
O334       Zr360   2.333       .  S
O334       Zr363   2.336       .  S
O335       Zr361   2.344       .  S
O335       Zr362   2.345       .  S
C336       C1814   1.484       .  S
C337        C945   1.482       .  S
C338        C834   1.485       .  S
C339       C1105   1.477       .  S
H340        O341   0.965       .  S
O341       Zr360   2.334       .  S
O341       Zr362   2.334       .  S
H342        O343   0.966       .  S
O343       Zr361   2.337       .  S
O343       Zr363   2.343       .  S
O344       Zr360   2.426       .  S
O344        C367   1.291       .  A
O345       Zr361   2.425       .  S
O345        C368   1.290       .  A
O346       Zr362   2.443       .  S
O346        C369   1.293       .  A
O347       Zr363   2.436       .  S
O347        C370   1.293       .  A
O348       Zr363   2.441       .  S
O348        C371   1.293       .  A
O349       Zr362   2.429       .  S
O349        C372   1.292       .  A
O350       Zr364   2.444       .  S
O350        C373   1.294       .  A
O351       Zr364   2.445       .  S
O351        C374   1.295       .  A
O352       Zr362   2.435       .  S
O352        C373   1.293       .  A
O353       Zr363   2.447       .  S
O353        C374   1.294       .  A
O354       Zr360   2.437       .  S
O354        C369   1.293       .  A
O355       Zr361   2.438       .  S
O355        C372   1.292       .  A
O356       Zr361   2.439       .  S
O356        C371   1.293       .  A
O357       Zr360   2.433       .  S
O357        C370   1.291       .  A
O358       Zr364   2.432       .  S
O358        C367   1.291       .  A
O359       Zr364   2.436       .  S
O359        C368   1.293       .  A
Zr360       O366   2.332       .  S
Zr360       O378   2.345       .  S
Zr361       O365   2.337       .  S
Zr361       O376   2.338       .  S
Zr362       O366   2.335       .  S
Zr362       O376   2.337       .  S
Zr363       O365   2.340       .  S
Zr363       O378   2.344       .  S
Zr364       O365   2.337       .  S
Zr364       O366   2.339       .  S
Zr364       O378   2.345       .  S
Zr364       O376   2.335       .  S
C367       C1514   1.472       .  S
C368        C994   1.475       .  S
C369       C1585   1.483       .  S
C370       C1074   1.480       .  S
C371       C1654   1.486       .  S
C372       C1334   1.481       .  S
C373       C1174   1.485       .  S
C374        C754   1.489       .  S
H375        O376   0.965       .  S
H377        O378   0.966       .  S
O379       Zr415   2.442       .  S
O379        C390   1.293       .  A
O380       Zr414   2.423       .  S
O380        C391   1.291       .  A
O381       Zr387   2.441       .  S
O381        C392   1.293       .  A
O382       Zr387   2.438       .  S
O382        C393   1.293       .  A
O383       Zr417   2.438       .  S
O383        C393   1.292       .  A
O384       Zr416   2.425       .  S
O384        C392   1.291       .  A
O385       Zr387   2.446       .  S
O385        C391   1.294       .  A
O386       Zr387   2.432       .  S
O386        C390   1.292       .  A
Zr387       O388   2.338       .  S
Zr387       O389   2.341       .  S
Zr387       O397   2.344       .  S
Zr387       O395   2.339       .  S
O388       Zr414   2.342       .  S
O388       Zr417   2.344       .  S
O389       Zr415   2.335       .  S
O389       Zr416   2.336       .  S
C390       C1954   1.483       .  S
C391       C1494   1.481       .  S
C392        C874   1.481       .  S
C393       C1865   1.483       .  S
H394        O395   0.965       .  S
O395       Zr414   2.335       .  S
O395       Zr416   2.340       .  S
H396        O397   0.966       .  S
O397       Zr415   2.344       .  S
O397       Zr417   2.343       .  S
O398       Zr414   2.432       .  S
O398        C421   1.291       .  A
O399       Zr415   2.436       .  S
O399        C422   1.293       .  A
O400       Zr416   2.421       .  S
O400        C423   1.289       .  A
O401       Zr417   2.448       .  S
O401        C424   1.295       .  A
O402       Zr417   2.451       .  S
O402        C425   1.295       .  A
O403       Zr416   2.422       .  S
O403        C426   1.290       .  A
O404       Zr418   2.434       .  S
O404        C427   1.292       .  A
O405       Zr418   2.427       .  S
O405        C428   1.290       .  A
O406       Zr416   2.445       .  S
O406        C427   1.293       .  A
O407       Zr417   2.439       .  S
O407        C428   1.294       .  A
O408       Zr414   2.454       .  S
O408        C423   1.296       .  A
O409       Zr415   2.443       .  S
O409        C426   1.293       .  A
O410       Zr415   2.431       .  S
O410        C425   1.292       .  A
O411       Zr414   2.450       .  S
O411        C424   1.295       .  A
O412       Zr418   2.432       .  S
O412        C421   1.292       .  A
O413       Zr418   2.440       .  S
O413        C422   1.293       .  A
Zr414       O420   2.341       .  S
Zr414       O432   2.337       .  S
Zr415       O419   2.338       .  S
Zr415       O430   2.341       .  S
Zr416       O420   2.337       .  S
Zr416       O430   2.336       .  S
Zr417       O419   2.337       .  S
Zr417       O432   2.337       .  S
Zr418       O419   2.336       .  S
Zr418       O420   2.337       .  S
Zr418       O432   2.338       .  S
Zr418       O430   2.340       .  S
C421       C1905   1.474       .  S
C422       C1265   1.483       .  S
C423       C1374   1.480       .  S
C424        C594   1.492       .  S
C425       C1385   1.487       .  S
C426        C785   1.477       .  S
C427       C1745   1.485       .  S
C428        C914   1.478       .  S
H429        O430   0.966       .  S
H431        O432   0.965       .  S
O433       Zr469   2.455       .  S
O433        C444   1.296       .  A
O434       Zr468   2.441       .  S
O434        C445   1.293       .  A
O435       Zr441   2.439       .  S
O435        C446   1.293       .  A
O436       Zr441   2.434       .  S
O436        C447   1.291       .  A
O437       Zr471   2.434       .  S
O437        C447   1.293       .  A
O438       Zr470   2.443       .  S
O438        C446   1.293       .  A
O439       Zr441   2.430       .  S
O439        C445   1.291       .  A
O440       Zr441   2.422       .  S
O440        C444   1.289       .  A
Zr441       O442   2.334       .  S
Zr441       O443   2.331       .  S
Zr441       O451   2.346       .  S
Zr441       O449   2.339       .  S
O442       Zr468   2.333       .  S
O442       Zr471   2.333       .  S
O443       Zr469   2.335       .  S
O443       Zr470   2.335       .  S
C444       C1685   1.483       .  S
C445       C1054   1.482       .  S
C446       C1205   1.485       .  S
C447        C774   1.481       .  S
H448        O449   0.966       .  S
O449       Zr468   2.345       .  S
O449       Zr470   2.346       .  S
H450        O451   0.966       .  S
O451       Zr469   2.341       .  S
O451       Zr471   2.347       .  S
O452       Zr468   2.435       .  S
O452        C475   1.293       .  A
O453       Zr469   2.439       .  S
O453        C476   1.293       .  A
O454       Zr470   2.434       .  S
O454        C477   1.292       .  A
O455       Zr471   2.433       .  S
O455        C478   1.292       .  A
O456       Zr471   2.427       .  S
O456        C479   1.291       .  A
O457       Zr470   2.432       .  S
O457        C480   1.292       .  A
O458       Zr472   2.424       .  S
O458        C481   1.290       .  A
O459       Zr472   2.435       .  S
O459        C482   1.293       .  A
O460       Zr470   2.443       .  S
O460        C481   1.294       .  A
O461       Zr471   2.446       .  S
O461        C482   1.293       .  A
O462       Zr468   2.442       .  S
O462        C477   1.294       .  A
O463       Zr469   2.430       .  S
O463        C480   1.291       .  A
O464       Zr469   2.438       .  S
O464        C479   1.293       .  A
O465       Zr468   2.453       .  S
O465        C478   1.295       .  A
O466       Zr472   2.444       .  S
O466        C475   1.293       .  A
O467       Zr472   2.437       .  S
O467        C476   1.293       .  A
Zr468       O474   2.337       .  S
Zr468       O486   2.344       .  S
Zr469       O473   2.341       .  S
Zr469       O484   2.347       .  S
Zr470       O474   2.336       .  S
Zr470       O484   2.341       .  S
Zr471       O473   2.333       .  S
Zr471       O486   2.340       .  S
Zr472       O473   2.333       .  S
Zr472       O474   2.336       .  S
Zr472       O486   2.339       .  S
Zr472       O484   2.345       .  S
C475       C1614   1.486       .  S
C476       C1094   1.482       .  S
C477       C1525   1.482       .  S
C478       C1005   1.487       .  S
C479       C1574   1.481       .  S
C480        C625   1.479       .  S
C481        C714   1.481       .  S
C482       C1134   1.486       .  S
H483        O484   0.966       .  S
H485        O486   0.966       .  S
O487       Zr523   2.438       .  S
O487        C498   1.293       .  A
O488       Zr522   2.432       .  S
O488        C499   1.291       .  A
O489       Zr495   2.445       .  S
O489        C500   1.293       .  A
O490       Zr495   2.434       .  S
O490        C501   1.293       .  A
O491       Zr525   2.440       .  S
O491        C501   1.293       .  A
O492       Zr524   2.430       .  S
O492        C500   1.292       .  A
O493       Zr495   2.437       .  S
O493        C499   1.293       .  A
O494       Zr495   2.434       .  S
O494        C498   1.291       .  A
Zr495       O496   2.335       .  S
Zr495       O497   2.337       .  S
Zr495       O505   2.342       .  S
Zr495       O503   2.342       .  S
O496       Zr522   2.335       .  S
O496       Zr525   2.341       .  S
O497       Zr523   2.335       .  S
O497       Zr524   2.336       .  S
C498       C1934   1.482       .  S
C499       C1285   1.479       .  S
C500        C854   1.481       .  S
C501       C1414   1.483       .  S
H502        O503   0.966       .  S
O503       Zr522   2.342       .  S
O503       Zr524   2.347       .  S
H504        O505   0.966       .  S
O505       Zr523   2.338       .  S
O505       Zr525   2.338       .  S
O506       Zr522   2.420       .  S
O506        C529   1.290       .  A
O507       Zr523   2.439   1_445  S
O507        C530   1.293       .  A
O508       Zr524   2.438       .  S
O508        C531   1.293       .  A
O509       Zr525   2.433       .  S
O509        C532   1.292       .  A
O510       Zr525   2.441       .  S
O510        C533   1.294       .  A
O511       Zr524   2.443   1_545  S
O511        C534   1.294       .  A
O512       Zr526   2.418   1_545  S
O512        C535   1.290       .  A
O513       Zr526   2.431   1_455  S
O513        C536   1.291       .  A
O514       Zr524   2.443   1_545  S
O514        C535   1.293       .  A
O515       Zr525   2.439   1_455  S
O515        C536   1.293       .  A
O516       Zr522   2.443       .  S
O516        C531   1.294       .  A
O517       Zr523   2.431   1_545  S
O517        C534   1.292       .  A
O518       Zr523   2.433       .  S
O518        C533   1.291       .  A
O519       Zr522   2.438       .  S
O519        C532   1.293       .  A
O520       Zr526   2.443       .  S
O520        C529   1.293       .  A
O521       Zr526   2.437   1_445  S
O521        C530   1.293       .  A
Zr522       O528   2.334       .  S
Zr522       O540   2.341       .  S
Zr523       O527   2.340       .  S
Zr523       O538   2.342   1_565  S
Zr524       O528   2.335       .  S
Zr524       O538   2.338   1_565  S
Zr525       O527   2.339       .  S
Zr525       O540   2.337       .  S
Zr526       O527   2.339       .  S
Zr526       O528   2.334       .  S
Zr526       O540   2.335       .  S
Zr526       O538   2.341   1_565  S
C529       C1634   1.479       .  S
C530       C1305   1.483       .  S
C531        C974   1.487       .  S
C532       C1785   1.477       .  S
C533        C894   1.481   1_655  S
C534       C1765   1.483       .  S
C535       C1154   1.476       .  S
C536        C814   1.476       .  S
H537        O538   0.966       .  S
H539        O540   0.966       .  S
C541        C542   1.406   1_455  A
C541        C546   1.403   1_455  A
C541        H551   1.083       .  S
C542        C547   1.485       .  S
C542        C543   1.405       .  A
C543        C544   1.391       .  A
C543        H548   1.083       .  S
C544        C545   1.404       .  A
C544        H549   1.083       .  S
C545        C546   1.408       .  A
C546        H550   1.083   1_655  S
C547        C552   1.408   1_655  A
C547        C556   1.404       .  A
C552        C553   1.405       .  A
C552        H557   1.083       .  S
C553        C554   1.407   1_455  A
C553        H558   1.083       .  S
C554        C555   1.404       .  A
C555        C556   1.390       .  A
C555        H559   1.083       .  S
C556        H560   1.083       .  S
C561        C562   1.406       .  A
C561        C566   1.391       .  A
C561        H571   1.083       .  S
C562        C567   1.487       .  S
C562        C563   1.408       .  A
C563        C564   1.404       .  A
C563        H568   1.083       .  S
C564        C565   1.406       .  A
C564        H569   1.083       .  S
C565        C566   1.401       .  A
C566        H570   1.084       .  S
C567        C572   1.404       .  A
C567        C576   1.407       .  A
C572        C573   1.391       .  A
C572        H577   1.083       .  S
C573        C574   1.406       .  A
C573        H578   1.083       .  S
C574        C575   1.408       .  A
C575        C576   1.405       .  A
C575        H579   1.083       .  S
C576        H580   1.083       .  S
C581        C582   1.412       .  A
C581        C586   1.407       .  A
C581        H591   1.082       .  S
C582        C587   1.495       .  S
C582        C583   1.405       .  A
C583        C584   1.393       .  A
C583        H588   1.083       .  S
C584        C585   1.405       .  A
C584        H589   1.084       .  S
C585        C586   1.404       .  A
C586        H590   1.083       .  S
C587        C592   1.406       .  A
C587        C596   1.409       .  A
C592        C593   1.403       .  A
C592        H597   1.082       .  S
C593        C594   1.409       .  A
C593        H598   1.083       .  S
C594        C595   1.407       .  A
C595        C596   1.399       .  A
C595        H599   1.083       .  S
C596        H600   1.083       .  S
C601        C602   1.407       .  A
C601        C606   1.393       .  A
C601        H611   1.083       .  S
C602        C607   1.483       .  S
C602        C603   1.404       .  A
C603        C604   1.400       .  A
C603        H608   1.083       .  S
C604        C605   1.409       .  A
C604        H609   1.083       .  S
C605        C606   1.403       .  A
C606        H610   1.083       .  S
C607        C612   1.409       .  A
C607        C616   1.401       .  A
C612        C613   1.406       .  A
C612        H617   1.083       .  S
C613        C614   1.406       .  A
C613        H618   1.083       .  S
C614        C615   1.406       .  A
C615        C616   1.388       .  A
C615        H619   1.083       .  S
C616        H620   1.083       .  S
C621        C622   1.404       .  A
C621        C626   1.400       .  A
C621        H631   1.083       .  S
C622        C627   1.480       .  S
C622        C623   1.404       .  A
C623        C624   1.390       .  A
C623        H628   1.083       .  S
C624        C625   1.405       .  A
C624        H629   1.083       .  S
C625        C626   1.408       .  A
C626        H630   1.083       .  S
C627        C632   1.407       .  A
C627        C636   1.402   1_455  A
C632        C633   1.403   1_455  A
C632        H637   1.083       .  S
C633        C634   1.405       .  A
C633        H638   1.083       .  S
C634        C635   1.403       .  A
C635        C636   1.388       .  A
C635        H639   1.083       .  S
C636        H640   1.083       .  S
C641        C642   1.404       .  A
C641        C646   1.391       .  A
C641        H651   1.083       .  S
C642        C647   1.485       .  S
C642        C643   1.408       .  A
C643        C644   1.403       .  A
C643        H648   1.083       .  S
C644        C645   1.404       .  A
C644        H649   1.083       .  S
C645        C646   1.404       .  A
C646        H650   1.083       .  S
C647        C652   1.405       .  A
C647        C656   1.406       .  A
C652        C653   1.401       .  A
C652        H657   1.083       .  S
C653        C654   1.409       .  A
C653        H658   1.083       .  S
C654        C655   1.404       .  A
C655        C656   1.393       .  A
C655        H659   1.083       .  S
C656        H660   1.083       .  S
C661        C662   1.404       .  A
C661        C666   1.392       .  A
C661        H671   1.083   1_554  S
C662        C667   1.483       .  S
C662        C663   1.406       .  A
C663        C664   1.404       .  A
C663        H668   1.083       .  S
C664        C665   1.408       .  A
C664        H669   1.083       .  S
C665        C666   1.405       .  A
C666        H670   1.083   1_554  S
C667        C672   1.404       .  A
C667        C676   1.407       .  A
C672        C673   1.391       .  A
C672        H677   1.083       .  S
C673        C674   1.402       .  A
C673        H678   1.083       .  S
C674        C675   1.407       .  A
C675        C676   1.404       .  A
C675        H679   1.083       .  S
C676        H680   1.083       .  S
C681        C682   1.406       .  A
C681        C686   1.394       .  A
C681        H691   1.083       .  S
C682        C687   1.487       .  S
C682        C683   1.406       .  A
C683        C684   1.403       .  A
C683        H688   1.083       .  S
C684        C685   1.409       .  A
C684        H689   1.083       .  S
C685        C686   1.403       .  A
C686        H690   1.083       .  S
C687        C692   1.404       .  A
C687        C696   1.408       .  A
C692        C693   1.392       .  A
C692        H697   1.083       .  S
C693        C694   1.404       .  A
C693        H698   1.083       .  S
C694        C695   1.407       .  A
C695        C696   1.405       .  A
C695        H699   1.083       .  S
C696        H700   1.083       .  S
C701        C702   1.408       .  A
C701        C706   1.404       .  A
C701        H711   1.083       .  S
C702        C707   1.482       .  S
C702        C703   1.403       .  A
C703        C704   1.389       .  A
C703        H708   1.083       .  S
C704        C705   1.402       .  A
C704        H709   1.083       .  S
C705        C706   1.405       .  A
C706        H710   1.083       .  S
C707        C712   1.404       .  A
C707        C716   1.405   1_655  A
C712        C713   1.401   1_655  A
C712        H717   1.083       .  S
C713        C714   1.410       .  A
C713        H718   1.083       .  S
C714        C715   1.403       .  A
C715        C716   1.391       .  A
C715        H719   1.083       .  S
C716        H720   1.083   1_455  S
C721        C722   1.407       .  A
C721        C726   1.402       .  A
C721        H731   1.083       .  S
C722        C727   1.484       .  S
C722        C723   1.404       .  A
C723        C724   1.390       .  A
C723        H728   1.083       .  S
C724        C725   1.405       .  A
C724        H729   1.083       .  S
C725        C726   1.406       .  A
C726        H730   1.083       .  S
C727        C732   1.406       .  A
C727        C736   1.406       .  A
C732        C733   1.401       .  A
C732        H737   1.083       .  S
C733        C734   1.406       .  A
C733        H738   1.083       .  S
C734        C735   1.402       .  A
C735        C736   1.392       .  A
C735        H739   1.083       .  S
C736        H740   1.083       .  S
C741        C742   1.408       .  A
C741        C746   1.404       .  A
C741        H751   1.083       .  S
C742        C747   1.490       .  S
C742        C743   1.405       .  A
C743        C744   1.393       .  A
C743        H748   1.083       .  S
C744        C745   1.403       .  A
C744        H749   1.083       .  S
C745        C746   1.406       .  A
C746        H750   1.083       .  S
C747        C752   1.406       .  A
C747        C756   1.406       .  A
C752        C753   1.404       .  A
C752        H757   1.083       .  S
C753        C754   1.410       .  A
C753        H758   1.083       .  S
C754        C755   1.406       .  A
C755        C756   1.395       .  A
C755        H759   1.083       .  S
C756        H760   1.083       .  S
C761        C762   1.409       .  A
C761        C766   1.405       .  A
C761        H771   1.083       .  S
C762        C767   1.487       .  S
C762        C763   1.404       .  A
C763        C764   1.390       .  A
C763        H768   1.083       .  S
C764        C765   1.403       .  A
C764        H769   1.083       .  S
C765        C766   1.406       .  A
C766        H770   1.083       .  S
C767        C772   1.406       .  A
C767        C776   1.406       .  A
C772        C773   1.402       .  A
C772        H777   1.083       .  S
C773        C774   1.408       .  A
C773        H778   1.083       .  S
C774        C775   1.403       .  A
C775        C776   1.391       .  A
C775        H779   1.083       .  S
C776        H780   1.083       .  S
C781        C782   1.407       .  A
C781        C786   1.392       .  A
C781        H791   1.083       .  S
C782        C787   1.485       .  S
C782        C783   1.406       .  A
C783        C784   1.399       .  A
C783        H788   1.082       .  S
C784        C785   1.405       .  A
C784        H789   1.083       .  S
C785        C786   1.404       .  A
C786        H790   1.083       .  S
C787        C792   1.404       .  A
C787        C796   1.409       .  A
C792        C793   1.390       .  A
C792        H797   1.083       .  S
C793        C794   1.406       .  A
C793        H798   1.083       .  S
C794        C795   1.404       .  A
C795        C796   1.402       .  A
C795        H799   1.083       .  S
C796        H800   1.082       .  S
C801        C802   1.402       .  A
C801        C806   1.389       .  A
C801        H811   1.083       .  S
C802        C807   1.483       .  S
C802        C803   1.408       .  A
C803        C804   1.405       .  A
C803        H808   1.083       .  S
C804        C805   1.407       .  A
C804        H809   1.083       .  S
C805        C806   1.406       .  A
C806        H810   1.083       .  S
C807        C812   1.406       .  A
C807        C816   1.405       .  A
C812        C813   1.392       .  A
C812        H817   1.083       .  S
C813        C814   1.402       .  A
C813        H818   1.083       .  S
C814        C815   1.407       .  A
C815        C816   1.401       .  A
C815        H819   1.083       .  S
C816        H820   1.083       .  S
C821        C822   1.406       .  A
C821        C826   1.392   1_545  A
C821        H831   1.082       .  S
C822        C827   1.491       .  S
C822        C823   1.410       .  A
C823        C824   1.403       .  A
C823        H828   1.082       .  S
C824        C825   1.403   1_545  A
C824        H829   1.083       .  S
C825        C826   1.402       .  A
C826        H830   1.083       .  S
C827        C832   1.408       .  A
C827        C836   1.407       .  A
C832        C833   1.394       .  A
C832        H837   1.082       .  S
C833        C834   1.405       .  A
C833        H838   1.083       .  S
C834        C835   1.408       .  A
C835        C836   1.401       .  A
C835        H839   1.083       .  S
C836        H840   1.082       .  S
C841        C842   1.409       .  A
C841        C846   1.406       .  A
C841        H851   1.083       .  S
C842        C847   1.486       .  S
C842        C843   1.403       .  A
C843        C844   1.391       .  A
C843        H848   1.083   1_565  S
C844        C845   1.404       .  A
C844        H849   1.083   1_565  S
C845        C846   1.406       .  A
C846        H850   1.083       .  S
C847        C852   1.406       .  A
C847        C856   1.405       .  A
C852        C853   1.404       .  A
C852        H857   1.083       .  S
C853        C854   1.408       .  A
C853        H858   1.083       .  S
C854        C855   1.404       .  A
C855        C856   1.392       .  A
C855        H859   1.083       .  S
C856        H860   1.083       .  S
C861        C862   1.408       .  A
C861        C866   1.402       .  A
C861        H871   1.082       .  S
C862        C867   1.487       .  S
C862        C863   1.406       .  A
C863        C864   1.390       .  A
C863        H868   1.083       .  S
C864        C865   1.403       .  A
C864        H869   1.083       .  S
C865        C866   1.404       .  A
C866        H870   1.083       .  S
C867        C872   1.405       .  A
C867        C876   1.408       .  A
C872        C873   1.389       .  A
C872        H877   1.082       .  S
C873        C874   1.405       .  A
C873        H878   1.083       .  S
C874        C875   1.407       .  A
C875        C876   1.402       .  A
C875        H879   1.083       .  S
C876        H880   1.082       .  S
C881        C882   1.407       .  A
C881        C886   1.403       .  A
C881        H891   1.083       .  S
C882        C887   1.480       .  S
C882        C883   1.401   1_545  A
C883        C884   1.389       .  A
C883        H888   1.083       .  S
C884        C885   1.405   1_565  A
C884        H889   1.083       .  S
C885        C886   1.406       .  A
C886        H890   1.083       .  S
C887        C892   1.403       .  A
C887        C896   1.405   1_545  A
C892        C893   1.399       .  A
C892        H897   1.083       .  S
C893        C894   1.409   1_545  A
C893        H898   1.083       .  S
C894        C895   1.404       .  A
C895        C896   1.394       .  A
C895        H899   1.083       .  S
C896        H900   1.083       .  S
C901        C902   1.409       .  A
C901        C906   1.405       .  A
C901        H911   1.082       .  S
C902        C907   1.485       .  S
C902        C903   1.403       .  A
C903        C904   1.387       .  A
C903        H908   1.083       .  S
C904        C905   1.405       .  A
C904        H909   1.083       .  S
C905        C906   1.405       .  A
C906        H910   1.083       .  S
C907        C912   1.405       .  A
C907        C916   1.407       .  A
C912        C913   1.400       .  A
C912        H917   1.083       .  S
C913        C914   1.408       .  A
C913        H918   1.083       .  S
C914        C915   1.403       .  A
C915        C916   1.391       .  A
C915        H919   1.083       .  S
C916        H920   1.083       .  S
C921        C922   1.409       .  A
C921        C926   1.403       .  A
C921        H931   1.082       .  S
C922        C927   1.485       .  S
C922        C923   1.403       .  A
C923        C924   1.387       .  A
C923        H928   1.083       .  S
C924        C925   1.404       .  A
C924        H929   1.083       .  S
C925        C926   1.404       .  A
C926        H930   1.083       .  S
C927        C932   1.405       .  A
C927        C936   1.407       .  A
C932        C933   1.400       .  A
C932        H937   1.083       .  S
C933        C934   1.408       .  A
C933        H938   1.083       .  S
C934        C935   1.403       .  A
C935        C936   1.392       .  A
C935        H939   1.083       .  S
C936        H940   1.083       .  S
C941        C942   1.404       .  A
C941        C946   1.399       .  A
C941        H951   1.083   1_545  S
C942        C947   1.485   1_545  S
C942        C943   1.407       .  A
C943        C944   1.394       .  A
C943        H948   1.083       .  S
C944        C945   1.404       .  A
C944        H949   1.083       .  S
C945        C946   1.409       .  A
C946        H950   1.083       .  S
C947        C952   1.409       .  A
C947        C956   1.404       .  A
C952        C953   1.403       .  A
C952        H957   1.083       .  S
C953        C954   1.403       .  A
C953        H958   1.083       .  S
C954        C955   1.402       .  A
C955        C956   1.390       .  A
C955        H959   1.084       .  S
C956        H960   1.083   1_565  S
C961        C962   1.411       .  A
C961        C966   1.403       .  A
C961        H971   1.082       .  S
C962        C967   1.495       .  S
C962        C963   1.407       .  A
C963        C964   1.395       .  A
C963        H968   1.082       .  S
C964        C965   1.405       .  A
C964        H969   1.083       .  S
C965        C966   1.402       .  A
C966        H970   1.083       .  S
C967        C972   1.407       .  A
C967        C976   1.408       .  A
C972        C973   1.401       .  A
C972        H977   1.082       .  S
C973        C974   1.407       .  A
C973        H978   1.083       .  S
C974        C975   1.406       .  A
C975        C976   1.397       .  A
C975        H979   1.083       .  S
C976        H980   1.082       .  S
C981        C982   1.405       .  A
C981        C986   1.402       .  A
C981        H991   1.083       .  S
C982        C987   1.476       .  S
C982        C983   1.402       .  A
C983        C984   1.389       .  A
C983        H988   1.083       .  S
C984        C985   1.404       .  A
C984        H989   1.083       .  S
C985        C986   1.406       .  A
C986        H990   1.083       .  S
C987        C992   1.403       .  A
C987        C996   1.404       .  A
C992        C993   1.399       .  A
C992        H997   1.083       .  S
C993        C994   1.408       .  A
C993        H998   1.083       .  S
C994        C995   1.403       .  A
C995        C996   1.391       .  A
C995        H999   1.083       .  S
C996       H1000   1.083       .  S
C1001      C1002   1.407       .  A
C1001      C1006   1.404       .  A
C1001      H1011   1.083       .  S
C1002      C1007   1.489       .  S
C1002      C1003   1.405       .  A
C1003      C1004   1.394       .  A
C1003      H1008   1.083       .  S
C1004      C1005   1.407       .  A
C1004      H1009   1.083       .  S
C1005      C1006   1.408       .  A
C1006      H1010   1.083       .  S
C1007      C1012   1.408       .  A
C1007      C1016   1.405       .  A
C1012      C1013   1.405       .  A
C1012      H1017   1.083       .  S
C1013      C1014   1.405       .  A
C1013      H1018   1.083       .  S
C1014      C1015   1.405       .  A
C1015      C1016   1.394       .  A
C1015      H1019   1.083       .  S
C1016      H1020   1.083       .  S
C1021      C1022   1.405   1_565  A
C1021      C1026   1.391       .  A
C1021      H1031   1.083       .  S
C1022      C1027   1.485       .  S
C1022      C1023   1.406       .  A
C1023      C1024   1.404       .  A
C1023      H1028   1.083       .  S
C1024      C1025   1.408   1_545  A
C1024      H1029   1.083       .  S
C1025      C1026   1.402       .  A
C1026      H1030   1.083       .  S
C1027      C1032   1.403   1_545  A
C1027      C1036   1.408       .  A
C1032      C1033   1.389       .  A
C1032      H1037   1.083       .  S
C1033      C1034   1.404   1_565  A
C1033      H1038   1.083       .  S
C1034      C1035   1.407       .  A
C1035      C1036   1.405       .  A
C1035      H1039   1.083       .  S
C1036      H1040   1.083       .  S
C1041      C1042   1.407       .  A
C1041      C1046   1.400       .  A
C1041      H1051   1.083       .  S
C1042      C1047   1.481       .  S
C1042      C1043   1.403       .  A
C1043      C1044   1.394       .  A
C1043      H1048   1.083       .  S
C1044      C1045   1.404       .  A
C1044      H1049   1.083       .  S
C1045      C1046   1.403       .  A
C1046      H1050   1.083       .  S
C1047      C1052   1.403       .  A
C1047      C1056   1.405       .  A
C1052      C1053   1.398       .  A
C1052      H1057   1.083       .  S
C1053      C1054   1.407       .  A
C1053      H1058   1.083       .  S
C1054      C1055   1.407       .  A
C1055      C1056   1.395       .  A
C1055      H1059   1.083       .  S
C1056      H1060   1.083       .  S
C1061      C1062   1.404       .  A
C1061      C1066   1.391       .  A
C1061      H1071   1.083       .  S
C1062      C1067   1.482       .  S
C1062      C1063   1.407       .  A
C1063      C1064   1.403       .  A
C1063      H1068   1.083       .  S
C1064      C1065   1.405       .  A
C1064      H1069   1.083       .  S
C1065      C1066   1.404       .  A
C1066      H1070   1.083       .  S
C1067      C1072   1.405       .  A
C1067      C1076   1.405       .  A
C1072      C1073   1.392       .  A
C1072      H1077   1.083       .  S
C1073      C1074   1.404       .  A
C1073      H1078   1.083       .  S
C1074      C1075   1.408       .  A
C1075      C1076   1.401       .  A
C1075      H1079   1.083       .  S
C1076      H1080   1.083       .  S
C1081      C1082   1.406       .  A
C1081      C1086   1.391       .  A
C1081      H1091   1.082       .  S
C1082      C1087   1.490       .  S
C1082      C1083   1.409       .  A
C1083      C1084   1.403       .  A
C1083      H1088   1.082       .  S
C1084      C1085   1.405       .  A
C1084      H1089   1.083       .  S
C1085      C1086   1.403       .  A
C1086      H1090   1.083       .  S
C1087      C1092   1.407       .  A
C1087      C1096   1.407       .  A
C1092      C1093   1.393   1_655  A
C1092      H1097   1.082       .  S
C1093      C1094   1.404       .  A
C1093      H1098   1.083       .  S
C1094      C1095   1.407       .  A
C1095      C1096   1.401   1_455  A
C1095      H1099   1.083       .  S
C1096      H1100   1.082       .  S
C1101      C1102   1.403       .  A
C1101      C1106   1.399       .  A
C1101      H1111   1.083       .  S
C1102      C1107   1.480       .  S
C1102      C1103   1.406       .  A
C1103      C1104   1.393       .  A
C1103      H1108   1.083       .  S
C1104      C1105   1.403       .  A
C1104      H1109   1.083       .  S
C1105      C1106   1.408       .  A
C1106      H1110   1.083       .  S
C1107      C1112   1.400       .  A
C1107      C1116   1.408       .  A
C1112      C1113   1.387       .  A
C1112      H1117   1.083       .  S
C1113      C1114   1.405       .  A
C1113      H1118   1.083       .  S
C1114      C1115   1.408       .  A
C1115      C1116   1.405       .  A
C1115      H1119   1.083       .  S
C1116      H1120   1.083       .  S
C1121      C1122   1.406       .  A
C1121      C1126   1.391       .  A
C1121      H1131   1.082       .  S
C1122      C1127   1.492       .  S
C1122      C1123   1.409       .  A
C1123      C1124   1.403       .  A
C1123      H1128   1.082       .  S
C1124      C1125   1.405       .  A
C1124      H1129   1.083       .  S
C1125      C1126   1.404       .  A
C1126      H1130   1.083       .  S
C1127      C1132   1.407       .  A
C1127      C1136   1.408       .  A
C1132      C1133   1.393       .  A
C1132      H1137   1.082       .  S
C1133      C1134   1.405       .  A
C1133      H1138   1.083       .  S
C1134      C1135   1.408       .  A
C1135      C1136   1.403       .  A
C1135      H1139   1.083       .  S
C1136      H1140   1.082       .  S
C1141      C1142   1.406   1_655  A
C1141      C1146   1.401       .  A
C1141      H1151   1.083       .  S
C1142      C1147   1.477   1_455  S
C1142      C1143   1.403       .  A
C1143      C1144   1.388       .  A
C1143      H1148   1.083       .  S
C1144      C1145   1.403       .  A
C1144      H1149   1.083       .  S
C1145      C1146   1.404   1_455  A
C1146      H1150   1.083       .  S
C1147      C1152   1.405       .  A
C1147      C1156   1.402   1_655  A
C1152      C1153   1.401       .  A
C1152      H1157   1.083       .  S
C1153      C1154   1.406       .  A
C1153      H1158   1.083       .  S
C1154      C1155   1.405       .  A
C1155      C1156   1.388   1_655  A
C1155      H1159   1.083   1_655  S
C1156      H1160   1.083       .  S
C1161      C1162   1.407       .  A
C1161      C1166   1.401       .  A
C1161      H1171   1.083       .  S
C1162      C1167   1.482       .  S
C1162      C1163   1.404       .  A
C1163      C1164   1.394       .  A
C1163      H1168   1.083       .  S
C1164      C1165   1.403       .  A
C1164      H1169   1.084       .  S
C1165      C1166   1.402       .  A
C1166      H1170   1.083       .  S
C1167      C1172   1.403       .  A
C1167      C1176   1.405       .  A
C1172      C1173   1.399       .  A
C1172      H1177   1.083       .  S
C1173      C1174   1.408       .  A
C1173      H1178   1.083       .  S
C1174      C1175   1.407       .  A
C1175      C1176   1.396       .  A
C1175      H1179   1.083       .  S
C1176      H1180   1.083       .  S
C1181      C1182   1.405       .  A
C1181      C1186   1.393       .  A
C1181      H1191   1.083       .  S
C1182      C1187   1.489       .  S
C1182      C1183   1.408       .  A
C1183      C1184   1.404       .  A
C1183      H1188   1.083       .  S
C1184      C1185   1.406       .  A
C1184      H1189   1.083       .  S
C1185      C1186   1.405       .  A
C1186      H1190   1.083       .  S
C1187      C1192   1.406       .  A
C1187      C1196   1.407       .  A
C1192      C1193   1.393       .  A
C1192      H1197   1.083       .  S
C1193      C1194   1.404       .  A
C1193      H1198   1.083       .  S
C1194      C1195   1.408       .  A
C1195      C1196   1.403       .  A
C1195      H1199   1.083       .  S
C1196      H1200   1.083       .  S
C1201      C1202   1.407       .  A
C1201      C1206   1.405       .  A
C1201      H1211   1.083       .  S
C1202      C1207   1.490       .  S
C1202      C1203   1.406       .  A
C1203      C1204   1.393       .  A
C1203      H1208   1.083       .  S
C1204      C1205   1.404       .  A
C1204      H1209   1.083       .  S
C1205      C1206   1.408       .  A
C1206      H1210   1.083       .  S
C1207      C1212   1.409       .  A
C1207      C1216   1.404       .  A
C1212      C1213   1.407       .  A
C1212      H1217   1.083       .  S
C1213      C1214   1.407       .  A
C1213      H1218   1.083       .  S
C1214      C1215   1.405       .  A
C1215      C1216   1.391       .  A
C1215      H1219   1.083       .  S
C1216      H1220   1.083       .  S
C1221      C1222   1.402       .  A
C1221      C1226   1.392       .  A
C1221      H1231   1.083       .  S
C1222      C1227   1.485       .  S
C1222      C1223   1.408       .  A
C1223      C1224   1.406   1_545  A
C1223      H1228   1.083       .  S
C1224      C1225   1.406   1_565  A
C1224      H1229   1.083       .  S
C1225      C1226   1.405       .  A
C1226      H1230   1.083       .  S
C1227      C1232   1.406       .  A
C1227      C1236   1.404       .  A
C1232      C1233   1.396       .  A
C1232      H1237   1.083       .  S
C1233      C1234   1.406       .  A
C1233      H1238   1.083       .  S
C1234      C1235   1.409       .  A
C1235      C1236   1.401       .  A
C1235      H1239   1.083       .  S
C1236      H1240   1.083       .  S
C1241      C1242   1.404       .  A
C1241      C1246   1.392       .  A
C1241      H1251   1.083       .  S
C1242      C1247   1.492       .  S
C1242      C1243   1.409       .  A
C1243      C1244   1.406       .  A
C1243      H1248   1.083       .  S
C1244      C1245   1.407       .  A
C1244      H1249   1.083       .  S
C1245      C1246   1.407       .  A
C1246      H1250   1.083       .  S
C1247      C1252   1.407       .  A
C1247      C1256   1.409       .  A
C1252      C1253   1.395       .  A
C1252      H1257   1.083   1_565  S
C1253      C1254   1.403       .  A
C1253      H1258   1.084   1_565  S
C1254      C1255   1.405       .  A
C1255      C1256   1.404       .  A
C1255      H1259   1.083       .  S
C1256      H1260   1.082       .  S
C1261      C1262   1.407       .  A
C1261      C1266   1.393       .  A
C1261      H1271   1.083       .  S
C1262      C1267   1.488       .  S
C1262      C1263   1.406       .  A
C1263      C1264   1.402       .  A
C1263      H1268   1.083       .  S
C1264      C1265   1.408       .  A
C1264      H1269   1.083       .  S
C1265      C1266   1.404       .  A
C1266      H1270   1.083       .  S
C1267      C1272   1.403       .  A
C1267      C1276   1.410       .  A
C1272      C1273   1.388       .  A
C1272      H1277   1.083       .  S
C1273      C1274   1.405       .  A
C1273      H1278   1.083       .  S
C1274      C1275   1.406       .  A
C1275      C1276   1.406       .  A
C1275      H1279   1.083       .  S
C1276      H1280   1.082       .  S
C1281      C1282   1.405       .  A
C1281      C1286   1.401       .  A
C1281      H1291   1.083       .  S
C1282      C1287   1.484       .  S
C1282      C1283   1.406       .  A
C1283      C1284   1.392       .  A
C1283      H1288   1.083       .  S
C1284      C1285   1.403       .  A
C1284      H1289   1.083       .  S
C1285      C1286   1.407       .  A
C1286      H1290   1.083       .  S
C1287      C1292   1.403       .  A
C1287      C1296   1.408       .  A
C1292      C1293   1.389       .  A
C1292      H1297   1.083       .  S
C1293      C1294   1.406       .  A
C1293      H1298   1.083       .  S
C1294      C1295   1.406       .  A
C1295      C1296   1.404       .  A
C1295      H1299   1.083       .  S
C1296      H1300   1.083       .  S
C1301      C1302   1.405       .  A
C1301      C1306   1.400       .  A
C1301      H1311   1.083       .  S
C1302      C1307   1.484       .  S
C1302      C1303   1.405       .  A
C1303      C1304   1.393       .  A
C1303      H1308   1.083       .  S
C1304      C1305   1.405       .  A
C1304      H1309   1.083       .  S
C1305      C1306   1.408       .  A
C1306      H1310   1.083       .  S
C1307      C1312   1.407       .  A
C1307      C1316   1.405       .  A
C1312      C1313   1.401       .  A
C1312      H1317   1.083       .  S
C1313      C1314   1.405       .  A
C1313      H1318   1.083       .  S
C1314      C1315   1.403       .  A
C1315      C1316   1.392       .  A
C1315      H1319   1.083       .  S
C1316      H1320   1.083       .  S
C1321      C1322   1.407       .  A
C1321      C1326   1.401       .  A
C1321      H1331   1.083       .  S
C1322      C1327   1.482       .  S
C1322      C1323   1.405       .  A
C1323      C1324   1.392       .  A
C1323      H1328   1.083       .  S
C1324      C1325   1.400       .  A
C1324      H1329   1.084       .  S
C1325      C1326   1.402       .  A
C1326      H1330   1.083       .  S
C1327      C1332   1.406       .  A
C1327      C1336   1.403       .  A
C1332      C1333   1.402       .  A
C1332      H1337   1.083       .  S
C1333      C1334   1.408       .  A
C1333      H1338   1.083       .  S
C1334      C1335   1.405       .  A
C1335      C1336   1.390       .  A
C1335      H1339   1.083       .  S
C1336      H1340   1.083       .  S
C1341      C1342   1.402       .  A
C1341      C1346   1.390       .  A
C1341      H1351   1.083       .  S
C1342      C1347   1.487       .  S
C1342      C1343   1.409       .  A
C1343      C1344   1.405       .  A
C1343      H1348   1.083       .  S
C1344      C1345   1.405       .  A
C1344      H1349   1.083       .  S
C1345      C1346   1.407       .  A
C1346      H1350   1.083       .  S
C1347      C1352   1.406       .  A
C1347      C1356   1.406       .  A
C1352      C1353   1.393       .  A
C1352      H1357   1.083       .  S
C1353      C1354   1.405       .  A
C1353      H1358   1.083       .  S
C1354      C1355   1.406       .  A
C1355      C1356   1.401       .  A
C1355      H1359   1.083       .  S
C1356      H1360   1.083       .  S
C1361      C1362   1.408       .  A
C1361      C1366   1.404       .  A
C1361      H1371   1.083       .  S
C1362      C1367   1.482       .  S
C1362      C1363   1.402       .  A
C1363      C1364   1.388       .  A
C1363      H1368   1.083       .  S
C1364      C1365   1.404       .  A
C1364      H1369   1.083       .  S
C1365      C1366   1.405       .  A
C1366      H1370   1.083       .  S
C1367      C1372   1.404       .  A
C1367      C1376   1.406       .  A
C1372      C1373   1.400   1_655  A
C1372      H1377   1.083       .  S
C1373      C1374   1.410       .  A
C1373      H1378   1.083       .  S
C1374      C1375   1.402       .  A
C1375      C1376   1.393   1_455  A
C1375      H1379   1.083       .  S
C1376      H1380   1.083       .  S
C1381      C1382   1.406       .  A
C1381      C1386   1.402       .  A
C1381      H1391   1.083       .  S
C1382      C1387   1.489       .  S
C1382      C1383   1.406       .  A
C1383      C1384   1.395       .  A
C1383      H1388   1.083       .  S
C1384      C1385   1.406       .  A
C1384      H1389   1.083       .  S
C1385      C1386   1.408       .  A
C1386      H1390   1.083       .  S
C1387      C1392   1.409       .  A
C1387      C1396   1.405       .  A
C1392      C1393   1.403       .  A
C1392      H1397   1.083       .  S
C1393      C1394   1.404       .  A
C1393      H1398   1.083       .  S
C1394      C1395   1.405       .  A
C1395      C1396   1.394       .  A
C1395      H1399   1.083       .  S
C1396      H1400   1.083       .  S
C1401      C1402   1.405       .  A
C1401      C1406   1.393       .  A
C1401      H1411   1.083       .  S
C1402      C1407   1.486       .  S
C1402      C1403   1.408       .  A
C1403      C1404   1.404       .  A
C1403      H1408   1.083       .  S
C1404      C1405   1.405       .  A
C1404      H1409   1.083       .  S
C1405      C1406   1.403       .  A
C1406      H1410   1.083       .  S
C1407      C1412   1.405       .  A
C1407      C1416   1.406       .  A
C1412      C1413   1.393       .  A
C1412      H1417   1.083       .  S
C1413      C1414   1.405       .  A
C1413      H1418   1.083       .  S
C1414      C1415   1.408       .  A
C1415      C1416   1.403       .  A
C1415      H1419   1.083       .  S
C1416      H1420   1.083       .  S
C1421      C1422   1.405       .  A
C1421      C1426   1.390       .  A
C1421      H1431   1.083       .  S
C1422      C1427   1.489   1_545  S
C1422      C1423   1.409       .  A
C1423      C1424   1.405       .  A
C1423      H1428   1.083       .  S
C1424      C1425   1.406       .  A
C1424      H1429   1.083       .  S
C1425      C1426   1.403       .  A
C1426      H1430   1.084       .  S
C1427      C1432   1.408       .  A
C1427      C1436   1.405       .  A
C1432      C1433   1.405       .  A
C1432      H1437   1.082       .  S
C1433      C1434   1.407       .  A
C1433      H1438   1.083       .  S
C1434      C1435   1.405       .  A
C1435      C1436   1.391       .  A
C1435      H1439   1.083       .  S
C1436      H1440   1.083       .  S
C1441      C1442   1.407       .  A
C1441      C1446   1.394       .  A
C1441      H1451   1.082       .  S
C1442      C1447   1.495   1_455  S
C1442      C1443   1.411   1_455  A
C1443      C1444   1.404   1_655  A
C1443      H1448   1.082       .  S
C1444      C1445   1.403       .  A
C1444      H1449   1.083   1_455  S
C1445      C1446   1.402       .  A
C1446      H1450   1.084       .  S
C1447      C1452   1.409       .  A
C1447      C1456   1.408   1_655  A
C1452      C1453   1.404       .  A
C1452      H1457   1.082       .  S
C1453      C1454   1.408       .  A
C1453      H1458   1.083       .  S
C1454      C1455   1.406   1_655  A
C1455      C1456   1.395       .  A
C1455      H1459   1.083       .  S
C1456      H1460   1.082       .  S
C1461      C1462   1.402       .  A
C1461      C1466   1.391       .  A
C1461      H1471   1.083       .  S
C1462      C1467   1.481       .  S
C1462      C1463   1.407       .  A
C1463      C1464   1.402       .  A
C1463      H1468   1.083       .  S
C1464      C1465   1.405       .  A
C1464      H1469   1.083       .  S
C1465      C1466   1.406       .  A
C1466      H1470   1.083       .  S
C1467      C1472   1.405       .  A
C1467      C1476   1.405       .  A
C1472      C1473   1.400       .  A
C1472      H1477   1.083       .  S
C1473      C1474   1.406       .  A
C1473      H1478   1.083       .  S
C1474      C1475   1.404       .  A
C1475      C1476   1.392       .  A
C1475      H1479   1.083       .  S
C1476      H1480   1.083       .  S
C1481      C1482   1.408       .  A
C1481      C1486   1.404       .  A
C1481      H1491   1.083       .  S
C1482      C1487   1.483       .  S
C1482      C1483   1.402       .  A
C1483      C1484   1.389       .  A
C1483      H1488   1.083       .  S
C1484      C1485   1.405       .  A
C1484      H1489   1.083       .  S
C1485      C1486   1.405       .  A
C1486      H1490   1.083       .  S
C1487      C1492   1.406       .  A
C1487      C1496   1.404       .  A
C1492      C1493   1.402       .  A
C1492      H1497   1.083       .  S
C1493      C1494   1.407       .  A
C1493      H1498   1.083       .  S
C1494      C1495   1.406       .  A
C1495      C1496   1.391       .  A
C1495      H1499   1.083       .  S
C1496      H1500   1.083       .  S
C1501      C1502   1.402       .  A
C1501      C1506   1.389       .  A
C1501      H1511   1.083       .  S
C1502      C1507   1.479       .  S
C1502      C1503   1.406       .  A
C1503      C1504   1.400       .  A
C1503      H1508   1.083       .  S
C1504      C1505   1.406       .  A
C1504      H1509   1.083       .  S
C1505      C1506   1.406       .  A
C1506      H1510   1.083       .  S
C1507      C1512   1.405       .  A
C1507      C1516   1.405       .  A
C1512      C1513   1.391       .  A
C1512      H1517   1.083       .  S
C1513      C1514   1.403       .  A
C1513      H1518   1.083       .  S
C1514      C1515   1.405       .  A
C1515      C1516   1.398       .  A
C1515      H1519   1.083       .  S
C1516      H1520   1.083       .  S
C1521      C1522   1.407       .  A
C1521      C1526   1.403       .  A
C1521      H1531   1.083       .  S
C1522      C1527   1.488       .  S
C1522      C1523   1.406       .  A
C1523      C1524   1.391       .  A
C1523      H1528   1.083       .  S
C1524      C1525   1.403       .  A
C1524      H1529   1.083       .  S
C1525      C1526   1.409       .  A
C1526      H1530   1.083       .  S
C1527      C1532   1.405       .  A
C1527      C1536   1.408       .  A
C1532      C1533   1.390       .  A
C1532      H1537   1.083       .  S
C1533      C1534   1.405       .  A
C1533      H1538   1.083       .  S
C1534      C1535   1.405       .  A
C1535      C1536   1.404       .  A
C1535      H1539   1.083       .  S
C1536      H1540   1.082       .  S
C1541      C1542   1.407       .  A
C1541      C1546   1.402       .  A
C1541      H1551   1.083   1_545  S
C1542      C1547   1.485       .  S
C1542      C1543   1.404       .  A
C1543      C1544   1.391       .  A
C1543      H1548   1.083       .  S
C1544      C1545   1.405       .  A
C1544      H1549   1.083       .  S
C1545      C1546   1.405       .  A
C1546      H1550   1.083       .  S
C1547      C1552   1.407   1_545  A
C1547      C1556   1.405       .  A
C1552      C1553   1.402       .  A
C1552      H1557   1.083       .  S
C1553      C1554   1.406       .  A
C1553      H1558   1.083       .  S
C1554      C1555   1.404   1_565  A
C1555      C1556   1.392       .  A
C1555      H1559   1.083   1_455  S
C1556      H1560   1.083       .  S
C1561      C1562   1.410       .  A
C1561      C1566   1.402       .  A
C1561      H1571   1.082       .  S
C1562      C1567   1.485       .  S
C1562      C1563   1.404       .  A
C1563      C1564   1.391       .  A
C1563      H1568   1.083       .  S
C1564      C1565   1.402       .  A
C1564      H1569   1.084       .  S
C1565      C1566   1.403       .  A
C1566      H1570   1.083       .  S
C1567      C1572   1.404       .  A
C1567      C1576   1.408       .  A
C1572      C1573   1.397       .  A
C1572      H1577   1.083       .  S
C1573      C1574   1.408       .  A
C1573      H1578   1.083       .  S
C1574      C1575   1.404       .  A
C1575      C1576   1.394       .  A
C1575      H1579   1.083       .  S
C1576      H1580   1.083       .  S
C1581      C1582   1.406       .  A
C1581      C1586   1.394       .  A
C1581      H1591   1.083   1_545  S
C1582      C1587   1.486   1_545  S
C1582      C1583   1.406       .  A
C1583      C1584   1.402       .  A
C1583      H1588   1.083       .  S
C1584      C1585   1.408       .  A
C1584      H1589   1.083       .  S
C1585      C1586   1.404       .  A
C1586      H1590   1.083       .  S
C1587      C1592   1.404       .  A
C1587      C1596   1.407       .  A
C1592      C1593   1.392       .  A
C1592      H1597   1.083       .  S
C1593      C1594   1.404       .  A
C1593      H1598   1.083       .  S
C1594      C1595   1.406       .  A
C1595      C1596   1.404       .  A
C1595      H1599   1.083       .  S
C1596      H1600   1.083       .  S
C1601      C1602   1.406       .  A
C1601      C1606   1.392       .  A
C1601      H1611   1.082       .  S
C1602      C1607   1.495       .  S
C1602      C1603   1.411       .  A
C1603      C1604   1.406       .  A
C1603      H1608   1.082       .  S
C1604      C1605   1.405       .  A
C1604      H1609   1.083       .  S
C1605      C1606   1.403       .  A
C1606      H1610   1.083       .  S
C1607      C1612   1.408       .  A
C1607      C1616   1.408       .  A
C1612      C1613   1.394       .  A
C1612      H1617   1.082       .  S
C1613      C1614   1.405       .  A
C1613      H1618   1.083       .  S
C1614      C1615   1.408       .  A
C1615      C1616   1.403       .  A
C1615      H1619   1.083       .  S
C1616      H1620   1.082       .  S
C1621      C1622   1.408   1_455  A
C1621      C1626   1.403       .  A
C1621      H1631   1.082       .  S
C1622      C1627   1.487       .  S
C1622      C1623   1.405       .  A
C1623      C1624   1.392       .  A
C1623      H1628   1.083       .  S
C1624      C1625   1.405       .  A
C1624      H1629   1.083       .  S
C1625      C1626   1.405   1_655  A
C1626      H1630   1.083       .  S
C1627      C1632   1.407   1_655  A
C1627      C1636   1.406       .  A
C1632      C1633   1.400   1_455  A
C1632      H1637   1.082       .  S
C1633      C1634   1.406       .  A
C1633      H1638   1.083   1_655  S
C1634      C1635   1.405       .  A
C1635      C1636   1.392       .  A
C1635      H1639   1.083       .  S
C1636      H1640   1.083       .  S
C1641      C1642   1.406       .  A
C1641      C1646   1.393       .  A
C1641      H1651   1.083       .  S
C1642      C1647   1.485       .  S
C1642      C1643   1.407       .  A
C1643      C1644   1.401       .  A
C1643      H1648   1.083       .  S
C1644      C1645   1.403       .  A
C1644      H1649   1.083       .  S
C1645      C1646   1.401       .  A
C1646      H1650   1.084       .  S
C1647      C1652   1.404       .  A
C1647      C1656   1.406       .  A
C1652      C1653   1.392       .  A
C1652      H1657   1.083       .  S
C1653      C1654   1.406       .  A
C1653      H1658   1.083       .  S
C1654      C1655   1.409       .  A
C1655      C1656   1.403       .  A
C1655      H1659   1.083       .  S
C1656      H1660   1.083       .  S
C1661      C1662   1.405       .  A
C1661      C1666   1.401       .  A
C1661      H1671   1.083       .  S
C1662      C1667   1.486       .  S
C1662      C1663   1.406       .  A
C1663      C1664   1.392       .  A
C1663      H1668   1.083       .  S
C1664      C1665   1.404       .  A
C1664      H1669   1.083       .  S
C1665      C1666   1.408       .  A
C1666      H1670   1.083       .  S
C1667      C1672   1.409       .  A
C1667      C1676   1.404       .  A
C1672      C1673   1.404       .  A
C1672      H1677   1.082       .  S
C1673      C1674   1.405       .  A
C1673      H1678   1.083       .  S
C1674      C1675   1.403       .  A
C1675      C1676   1.389       .  A
C1675      H1679   1.083       .  S
C1676      H1680   1.083       .  S
C1681      C1682   1.404       .  A
C1681      C1686   1.399       .  A
C1681      H1691   1.083       .  S
C1682      C1687   1.487       .  S
C1682      C1683   1.408       .  A
C1683      C1684   1.396       .  A
C1683      H1688   1.083       .  S
C1684      C1685   1.403       .  A
C1684      H1689   1.083       .  S
C1685      C1686   1.409       .  A
C1686      H1690   1.083       .  S
C1687      C1692   1.410       .  A
C1687      C1696   1.402       .  A
C1692      C1693   1.405       .  A
C1692      H1697   1.083       .  S
C1693      C1694   1.404       .  A
C1693      H1698   1.083       .  S
C1694      C1695   1.406       .  A
C1695      C1696   1.390       .  A
C1695      H1699   1.083       .  S
C1696      H1700   1.083       .  S
C1701      C1702   1.406       .  A
C1701      C1706   1.405       .  A
C1701      H1711   1.083       .  S
C1702      C1707   1.485       .  S
C1702      C1703   1.404       .  A
C1703      C1704   1.392       .  A
C1703      H1708   1.083       .  S
C1704      C1705   1.405       .  A
C1704      H1709   1.083       .  S
C1705      C1706   1.410       .  A
C1706      H1710   1.083       .  S
C1707      C1712   1.407       .  A
C1707      C1716   1.405       .  A
C1712      C1713   1.404       .  A
C1712      H1717   1.083       .  S
C1713      C1714   1.407       .  A
C1713      H1718   1.083       .  S
C1714      C1715   1.403       .  A
C1715      C1716   1.392       .  A
C1715      H1719   1.083       .  S
C1716      H1720   1.083       .  S
C1721      C1722   1.407       .  A
C1721      C1726   1.404       .  A
C1721      H1731   1.083       .  S
C1722      C1727   1.487       .  S
C1722      C1723   1.404       .  A
C1723      C1724   1.394       .  A
C1723      H1728   1.083       .  S
C1724      C1725   1.407       .  A
C1724      H1729   1.083       .  S
C1725      C1726   1.406       .  A
C1726      H1730   1.083       .  S
C1727      C1732   1.408       .  A
C1727      C1736   1.404       .  A
C1732      C1733   1.404       .  A
C1732      H1737   1.083       .  S
C1733      C1734   1.405       .  A
C1733      H1738   1.083       .  S
C1734      C1735   1.405       .  A
C1735      C1736   1.394       .  A
C1735      H1739   1.084       .  S
C1736      H1740   1.083       .  S
C1741      C1742   1.407       .  A
C1741      C1746   1.394       .  A
C1741      H1751   1.082       .  S
C1742      C1747   1.492       .  S
C1742      C1743   1.407       .  A
C1743      C1744   1.403       .  A
C1743      H1748   1.082       .  S
C1744      C1745   1.407       .  A
C1744      H1749   1.083       .  S
C1745      C1746   1.405       .  A
C1746      H1750   1.083       .  S
C1747      C1752   1.405       .  A
C1747      C1756   1.410       .  A
C1752      C1753   1.392       .  A
C1752      H1757   1.083       .  S
C1753      C1754   1.405   1_455  A
C1753      H1758   1.083       .  S
C1754      C1755   1.404       .  A
C1755      C1756   1.405   1_655  A
C1755      H1759   1.083       .  S
C1756      H1760   1.082       .  S
C1761      C1762   1.406       .  A
C1761      C1766   1.395       .  A
C1761      H1771   1.083       .  S
C1762      C1767   1.486       .  S
C1762      C1763   1.405       .  A
C1763      C1764   1.399       .  A
C1763      H1768   1.083       .  S
C1764      C1765   1.407       .  A
C1764      H1769   1.083       .  S
C1765      C1766   1.406       .  A
C1766      H1770   1.083       .  S
C1767      C1772   1.405       .  A
C1767      C1776   1.409       .  A
C1772      C1773   1.393       .  A
C1772      H1777   1.083       .  S
C1773      C1774   1.405       .  A
C1773      H1778   1.083       .  S
C1774      C1775   1.403       .  A
C1775      C1776   1.401       .  A
C1775      H1779   1.083       .  S
C1776      H1780   1.083       .  S
C1781      C1782   1.407       .  A
C1781      C1786   1.395       .  A
C1781      H1791   1.083       .  S
C1782      C1787   1.483       .  S
C1782      C1783   1.404       .  A
C1783      C1784   1.397       .  A
C1783      H1788   1.083       .  S
C1784      C1785   1.406       .  A
C1784      H1789   1.083       .  S
C1785      C1786   1.404       .  A
C1786      H1790   1.083       .  S
C1787      C1792   1.402       .  A
C1787      C1796   1.409       .  A
C1792      C1793   1.390       .  A
C1792      H1797   1.083       .  S
C1793      C1794   1.407       .  A
C1793      H1798   1.083       .  S
C1794      C1795   1.404       .  A
C1795      C1796   1.402       .  A
C1795      H1799   1.083       .  S
C1796      H1800   1.083       .  S
C1801      C1802   1.405       .  A
C1801      C1806   1.392       .  A
C1801      H1811   1.083       .  S
C1802      C1807   1.487       .  S
C1802      C1803   1.410       .  A
C1803      C1804   1.402       .  A
C1803      H1808   1.082       .  S
C1804      C1805   1.402       .  A
C1804      H1809   1.083       .  S
C1805      C1806   1.404       .  A
C1806      H1810   1.084       .  S
C1807      C1812   1.406       .  A
C1807      C1816   1.405       .  A
C1812      C1813   1.394       .  A
C1812      H1817   1.083       .  S
C1813      C1814   1.407       .  A
C1813      H1818   1.083       .  S
C1814      C1815   1.407       .  A
C1815      C1816   1.400       .  A
C1815      H1819   1.083       .  S
C1816      H1820   1.082       .  S
C1821      C1822   1.403       .  A
C1821      C1826   1.391       .  A
C1821      H1831   1.083       .  S
C1822      C1827   1.472       .  S
C1822      C1823   1.402       .  A
C1823      C1824   1.398       .  A
C1823      H1828   1.083       .  S
C1824      C1825   1.406       .  A
C1824      H1829   1.083       .  S
C1825      C1826   1.404       .  A
C1826      H1830   1.083       .  S
C1827      C1832   1.401       .  A
C1827      C1836   1.405       .  A
C1832      C1833   1.388       .  A
C1832      H1837   1.084       .  S
C1833      C1834   1.404       .  A
C1833      H1838   1.083       .  S
C1834      C1835   1.405       .  A
C1835      C1836   1.401       .  A
C1835      H1839   1.083       .  S
C1836      H1840   1.083       .  S
C1841      C1842   1.408       .  A
C1841      C1846   1.403       .  A
C1841      H1851   1.082       .  S
C1842      C1847   1.494       .  S
C1842      C1843   1.410       .  A
C1843      C1844   1.395       .  A
C1843      H1848   1.082       .  S
C1844      C1845   1.401       .  A
C1844      H1849   1.084       .  S
C1845      C1846   1.406       .  A
C1846      H1850   1.083       .  S
C1847      C1852   1.411       .  A
C1847      C1856   1.403       .  A
C1852      C1853   1.408       .  A
C1852      H1857   1.082       .  S
C1853      C1854   1.406       .  A
C1853      H1858   1.083       .  S
C1854      C1855   1.408       .  A
C1855      C1856   1.389       .  A
C1855      H1859   1.083       .  S
C1856      H1860   1.082       .  S
C1861      C1862   1.405       .  A
C1861      C1866   1.393       .  A
C1861      H1871   1.083       .  S
C1862      C1867   1.485       .  S
C1862      C1863   1.405       .  A
C1863      C1864   1.402       .  A
C1863      H1868   1.083       .  S
C1864      C1865   1.408       .  A
C1864      H1869   1.083       .  S
C1865      C1866   1.405       .  A
C1866      H1870   1.083       .  S
C1867      C1872   1.403       .  A
C1867      C1876   1.408       .  A
C1872      C1873   1.391       .  A
C1872      H1877   1.083       .  S
C1873      C1874   1.405       .  A
C1873      H1878   1.083       .  S
C1874      C1875   1.406       .  A
C1875      C1876   1.405       .  A
C1875      H1879   1.083       .  S
C1876      H1880   1.083       .  S
C1881      C1882   1.408   1_545  A
C1881      C1886   1.394       .  A
C1881      H1891   1.082   1_545  S
C1882      C1887   1.489       .  S
C1882      C1883   1.406   1_565  A
C1883      C1884   1.400       .  A
C1883      H1888   1.082       .  S
C1884      C1885   1.407       .  A
C1884      H1889   1.083       .  S
C1885      C1886   1.404       .  A
C1886      H1890   1.083       .  S
C1887      C1892   1.405       .  A
C1887      C1896   1.410       .  A
C1892      C1893   1.390       .  A
C1892      H1897   1.082       .  S
C1893      C1894   1.403       .  A
C1893      H1898   1.083       .  S
C1894      C1895   1.403       .  A
C1895      C1896   1.403       .  A
C1895      H1899   1.083       .  S
C1896      H1900   1.082       .  S
C1901      C1902   1.406       .  A
C1901      C1906   1.400   1_655  A
C1901      H1911   1.083       .  S
C1902      C1907   1.482       .  S
C1902      C1903   1.405   1_655  A
C1903      C1904   1.391       .  A
C1903      H1908   1.083       .  S
C1904      C1905   1.403       .  A
C1904      H1909   1.083       .  S
C1905      C1906   1.405       .  A
C1906      H1910   1.083       .  S
C1907      C1912   1.407       .  A
C1907      C1916   1.403       .  A
C1912      C1913   1.402       .  A
C1912      H1917   1.083       .  S
C1913      C1914   1.406       .  A
C1913      H1918   1.083       .  S
C1914      C1915   1.405       .  A
C1915      C1916   1.390       .  A
C1915      H1919   1.083       .  S
C1916      H1920   1.083       .  S
C1921      C1922   1.403       .  A
C1921      C1926   1.388       .  A
C1921      H1931   1.083       .  S
C1922      C1927   1.484       .  S
C1922      C1923   1.409       .  A
C1923      C1924   1.404       .  A
C1923      H1928   1.083       .  S
C1924      C1925   1.405       .  A
C1924      H1929   1.083       .  S
C1925      C1926   1.401       .  A
C1926      H1930   1.083       .  S
C1927      C1932   1.405       .  A
C1927      C1936   1.405   1_545  A
C1932      C1933   1.391       .  A
C1932      H1937   1.083       .  S
C1933      C1934   1.404   1_545  A
C1933      H1938   1.083       .  S
C1934      C1935   1.409       .  A
C1935      C1936   1.402       .  A
C1935      H1939   1.083       .  S
C1936      H1940   1.083       .  S
C1941      C1942   1.405       .  A
C1941      C1946   1.389       .  A
C1941      H1951   1.083       .  S
C1942      C1947   1.488       .  S
C1942      C1943   1.410       .  A
C1943      C1944   1.405       .  A
C1943      H1948   1.082       .  S
C1944      C1945   1.405       .  A
C1944      H1949   1.083       .  S
C1945      C1946   1.402       .  A
C1946      H1950   1.083   1_565  S
C1947      C1952   1.406       .  A
C1947      C1956   1.406       .  A
C1952      C1953   1.391       .  A
C1952      H1957   1.083       .  S
C1953      C1954   1.405       .  A
C1953      H1958   1.083       .  S
C1954      C1955   1.408       .  A
C1955      C1956   1.402       .  A
C1955      H1959   1.083       .  S
C1956      H1960   1.082       .  S
C1961      C1962   1.403       .  A
C1961      C1966   1.390       .  A
C1961      H1971   1.083       .  S
C1962      C1967   1.480       .  S
C1962      C1963   1.407       .  A
C1963      C1964   1.402       .  A
C1963      H1968   1.083       .  S
C1964      C1965   1.403       .  A
C1964      H1969   1.083       .  S
C1965      C1966   1.401       .  A
C1966      H1970   1.084       .  S
C1967      C1972   1.404       .  A
C1967      C1976   1.404       .  A
C1972      C1973   1.392       .  A
C1972      H1977   1.083       .  S
C1973      C1974   1.405       .  A
C1973      H1978   1.083       .  S
C1974      C1975   1.409       .  A
C1975      C1976   1.400       .  A
C1975      H1979   1.083       .  S
C1976      H1980   1.083       .  S
