geometry optimzed in LAMMPS
_audit_creation_date              2020-11-30 
_audit_creation_method            'lammps2cif' 
_symmetry_space_group_name_H-M    'P1' 
_symmetry_Int_Tables_number       1 
_symmetry_cell_setting            triclinic 
loop_ 
_symmetry_equiv_pos_as_xyz 
  x,y,z 
_cell_length_a                    37.67308628 
_cell_length_b                    37.45911987828436 
_cell_length_c                    37.5372769497066 
_cell_angle_alpha                 89.79810645567616 
_cell_angle_beta                  90.18811033412646 
_cell_angle_gamma                 89.93806092319969 
loop_ 
_atom_site_label 
_atom_site_type_symbol 
_atom_site_fract_x 
_atom_site_fract_y 
_atom_site_fract_z 
_atom_site_charge 
C1          C  0.14330663  0.74253289  0.96697953     0.79900
N2          N  0.10740779  0.74557627  0.96731912    -0.78400
C3          C  0.09000594  0.75129959  0.99851219     0.82300
N4          N  0.10888398  0.75432962  0.02943530    -0.78400
C5          C  0.14498646  0.75191289  0.02896612     0.82400
N6          N  0.16157259  0.74531864  0.99784134    -0.80100
C7          C  0.34135361  0.56406082  0.02899560     0.79900
N8          N  0.34542309  0.58120683  0.99740942    -0.78400
C9          C  0.34809503  0.56269390  0.96659911     0.82300
N10         N  0.34562333  0.52653235  0.96731783    -0.78400
C11         C  0.34142025  0.50905440  0.99878665     0.82400
N12         N  0.33914923  0.52792020  0.02956743    -0.80100
C13         C  0.99893848  0.24818560  0.03088864     0.79900
N14         N  0.03489143  0.24656192  0.03098482    -0.78400
C15         C  0.05303950  0.24516216  0.99968751     0.82300
N16         N  0.03499264  0.24433394  0.96824101    -0.78400
C17         C  0.99894969  0.24549012  0.96802331     0.82400
N18         N  0.98139374  0.24738263  0.99947057    -0.80100
C19         C  0.81440858  0.41440222  0.96732678     0.79900
N20         N  0.81033752  0.45039855  0.96803144    -0.78400
C21         C  0.80636358  0.46755476  0.99964177     0.82300
N22         N  0.80608985  0.44849983  0.03051038    -0.78400
C23         C  0.80969438  0.41248238  0.02970599     0.82400
N24         N  0.81362507  0.39557263  0.99815976    -0.80100
C25         C  0.80554859  0.01744741  0.07154386     0.79900
N26         N  0.80628436  0.98572375  0.08913007    -0.78400
C27         C  0.80687841  0.95433295  0.07115045     0.82300
N28         N  0.80723000  0.95485557  0.03502878    -0.78400
C29         C  0.80611137  0.98641564  0.01710980     0.82400
N30         N  0.80529355  0.01762430  0.03544107    -0.80100
C31         C  0.64572243  0.01839438  0.27316407     0.79900
N32         N  0.60972257  0.01952824  0.27660643    -0.78400
C33         C  0.59047671  0.98872124  0.27556523     0.82300
N34         N  0.60736906  0.95695479  0.27088744    -0.78400
C35         C  0.64311646  0.95579648  0.26703699     0.82400
N36         N  0.66180525  0.98657415  0.26767302    -0.80100
C37         C  0.31862336  0.95175049  0.92823765     0.79900
N38         N  0.32131668  0.95397855  0.96418879    -0.78400
C39         C  0.32201208  0.98643640  0.98033697     0.82300
N40         N  0.31988966  0.01665462  0.96030105    -0.78400
C41         C  0.31678365  0.01450781  0.92427232     0.82400
N42         N  0.31628070  0.98203580  0.90854882    -0.80100
C43         C  0.49795681  0.95439950  0.73212720     0.79900
N44         N  0.47999813  0.98559551  0.73462790    -0.78400
C45         C  0.49720325  0.01727084  0.73470434     0.82300
N46         N  0.53316814  0.01779268  0.73191221    -0.78400
C47         C  0.55172315  0.98665517  0.72964998     0.82400
N48         N  0.53399238  0.95487881  0.72988795    -0.80100
C49         C  0.99642085  0.75264952  0.02929672     0.79900
N50         N  0.03251613  0.75187283  0.02954926    -0.78400
C51         C  0.05095402  0.75387314  0.99847880     0.82300
N52         N  0.03306079  0.75686935  0.96703676    -0.78400
C53         C  0.99705604  0.75891495  0.96660716     0.82400
N54         N  0.97902218  0.75635667  0.99770115    -0.80100
C55         C  0.79540297  0.55994874  0.03245380     0.79900
N56         N  0.79819057  0.52379445  0.03187503    -0.78400
C57         C  0.80290268  0.50652621  0.00040339     0.82300
N58         N  0.80550981  0.52557965  0.96963952    -0.78400
C59         C  0.80309030  0.56168625  0.97006361     0.82400
N60         N  0.79839990  0.57848415  0.00162547    -0.80100
C61         C  0.14727995  0.24045173  0.97130112     0.79900
N62         N  0.11121891  0.24252256  0.96977161    -0.78400
C63         C  0.09192771  0.24328838  0.00040633     0.82300
N64         N  0.10875260  0.24173828  0.03235535    -0.78400
C65         C  0.14453232  0.23950379  0.03399307     0.82400
N66         N  0.16362262  0.23847462  0.00347860    -0.80100
C67         C  0.33655722  0.41482794  0.96949804     0.79900
N68         N  0.33909437  0.45100264  0.96870925    -0.78400
C69         C  0.33852264  0.47003059  0.99956259     0.82300
N70         N  0.33468075  0.45283592  0.03126673    -0.78400
C71         C  0.33145356  0.41681701  0.03216806     0.82400
N72         N  0.33288937  0.39813030  0.00142188    -0.80100
C73         C  0.81400172  0.95719034  0.92352670     0.79900
N74         N  0.81639701  0.98903489  0.90657984    -0.78400
C75         C  0.81422417  0.01995690  0.92504394     0.82300
N76         N  0.81052867  0.01889162  0.96090729    -0.78400
C77         C  0.80838909  0.98707886  0.97820517     0.82400
N78         N  0.81019405  0.95613925  0.95945810    -0.80100
C79         C  0.64489025  0.01930094  0.73067507     0.79900
N80         N  0.60875867  0.01894583  0.73013717    -0.78400
C81         C  0.59087005  0.98730913  0.72876410     0.82300
N82         N  0.60935408  0.95609197  0.72811319    -0.78400
C83         C  0.64537685  0.95644892  0.72831431     0.82400
N84         N  0.66284634  0.98793917  0.73010173    -0.80100
C85         C  0.31925728  0.02135584  0.07269027     0.79900
N86         N  0.32111825  0.99045798  0.09141115    -0.78400
C87         C  0.32311930  0.95870397  0.07459244     0.82300
N88         N  0.32412991  0.95770800  0.03859096    -0.78400
C89         C  0.32299731  0.98844856  0.01936351     0.82400
N90         N  0.32055496  0.02042411  0.03645110    -0.80100
C91         C  0.49731826  0.95775880  0.27749292     0.79900
N92         N  0.53331190  0.95792361  0.27743602    -0.78400
C93         C  0.55145870  0.98929287  0.27798881     0.82300
N94         N  0.53326941  0.02072831  0.27814937    -0.78400
C95         C  0.49714193  0.02070368  0.27831888     0.82400
N96         N  0.47937324  0.98917050  0.27765407    -0.80100
C97         C  0.04300834  0.06456880  0.74532666     0.79900
N98         N  0.04158218  0.02839559  0.74186104    -0.78400
C99         C  0.07210460  0.00899126  0.73910529     0.82300
N100        N  0.10398985  0.02593445  0.73954056    -0.78400
C101        C  0.10544553  0.06197896  0.74217861     0.82400
N102        N  0.07502135  0.08097210  0.74519684    -0.80100
C103        C  0.03976817  0.25178893  0.57310095     0.79900
N104        N  0.04018073  0.25148924  0.53699597    -0.78400
C105        C  0.07148624  0.25301525  0.51904238     0.82300
N106        N  0.10272140  0.25403160  0.53747312    -0.78400
C107        C  0.10261147  0.25417430  0.57371105     0.82400
N108        N  0.07105155  0.25310650  0.59096810    -0.80100
C109        C  0.10064788  0.91439355  0.74022380     0.79900
N110        N  0.10168168  0.95060438  0.74028887    -0.78400
C111        C  0.07102514  0.96974602  0.73753911     0.82300
N112        N  0.03944837  0.95238726  0.73449987    -0.78400
C113        C  0.03827463  0.91612218  0.73429189     0.82400
N114        N  0.06910043  0.89749686  0.73718043    -0.80100
C115        C  0.03680200  0.71946233  0.57017479     0.79900
N116        N  0.06755862  0.71834325  0.58901002    -0.78400
C117        C  0.09946277  0.71847962  0.57217134     0.82300
N118        N  0.10028774  0.71898655  0.53598254    -0.78400
C119        C  0.06965832  0.72005592  0.51678957     0.82400
N120        N  0.03789594  0.72039914  0.53402475    -0.80100
C121        C  0.10159768  0.91054465  0.25440857     0.79900
N122        N  0.07017686  0.89315865  0.25227200    -0.78400
C123        C  0.03938295  0.91142117  0.24814156     0.82300
N124        N  0.04022093  0.94756646  0.24538281    -0.78400
C125        C  0.07169780  0.96532943  0.24694802     0.82400
N126        N  0.10237621  0.94668893  0.25124618    -0.80100
C127        C  0.10220571  0.71915811  0.42326509     0.79900
N128        N  0.10205708  0.71982038  0.45958456    -0.78400
C129        C  0.07061762  0.72054783  0.47756566     0.82300
N130        N  0.03956357  0.72089374  0.45909763    -0.78400
C131        C  0.03959044  0.72084861  0.42301795     0.82400
N132        N  0.07088893  0.71991150  0.40537563    -0.80100
C133        C  0.04098139  0.05893411  0.24251992     0.79900
N134        N  0.07228158  0.07665283  0.23981856    -0.78400
C135        C  0.10362241  0.05887101  0.23886034     0.82300
N136        N  0.10363088  0.02259112  0.24155325    -0.78400
C137        C  0.07231302  0.00449419  0.24407074     0.82400
N138        N  0.04118773  0.02282826  0.24469214    -0.80100
C139        C  0.10095623  0.25675071  0.42472228     0.79900
N140        N  0.06927320  0.25389020  0.40769910    -0.78400
C141        C  0.03864361  0.25067379  0.42622939     0.82300
N142        N  0.03958288  0.25048046  0.46231291    -0.78400
C143        C  0.07110025  0.25295385  0.47986232     0.82400
N144        N  0.10178085  0.25591210  0.46100644    -0.80100
C145        C  0.30982614  0.51879830  0.42473649     0.79900
N146        N  0.30956695  0.48714719  0.40735081    -0.78400
C147        C  0.30825706  0.45598478  0.42571503     0.82300
N148        N  0.30705736  0.45638325  0.46177882    -0.78400
C149        C  0.30748089  0.48793963  0.47939196     0.82400
N150        N  0.30917356  0.51907237  0.46081571    -0.80100
C151        C  0.14424661  0.45724147  0.23425497     0.79900
N152        N  0.10822126  0.45697915  0.23320800    -0.78400
C153        C  0.08983442  0.48820874  0.23379380     0.82300
N154        N  0.10767844  0.51972738  0.23562187    -0.78400
C155        C  0.14371003  0.52017015  0.23634436     0.82400
N156        N  0.16180401  0.48879498  0.23577536    -0.80100
O157        O  0.26872359  0.74659183  0.14581309    -0.86800
O158        O  0.25955440  0.72635019  0.34668481    -0.87000
O159        O  0.22390602  0.67484482  0.24128827    -0.88600
O160        O  0.21865948  0.79039275  0.25118950    -0.87400
O161        O  0.25884756  0.83620801  0.25649439    -0.87000
O162        O  0.26987824  0.63457587  0.24070558    -0.88400
O163        O  0.21865681  0.72767056  0.30131079    -0.86800
O164        O  0.22366507  0.74058641  0.18598176    -0.86400
Zr165      Zr  0.25037048  0.73436610  0.24513357     2.84300
O166        O  0.28204031  0.76920901  0.28607298    -1.08400
O167        O  0.28942472  0.70363882  0.20775216    -1.09100
C168        C  0.23548126  0.74482947  0.15399896     1.06300
C169        C  0.22742904  0.72564822  0.33458126     1.06200
C170        C  0.23654204  0.64271130  0.24129554     1.09200
C171        C  0.22704663  0.82360229  0.25456503     1.07000
H172        H  0.27228454  0.68054770  0.29267335     0.32600
O173        O  0.28670252  0.69730385  0.27958788    -1.29400
H174        H  0.27078275  0.79177730  0.20086043     0.32200
O175        O  0.28561002  0.77613144  0.21499310    -1.31000
O176        O  0.37474683  0.73030429  0.35140578    -0.86800
O177        O  0.38296113  0.74988030  0.15000267    -0.88300
O178        O  0.32600752  0.63347778  0.29856945    -0.86900
O179        O  0.31407613  0.83460610  0.31609747    -0.86900
O180        O  0.32081156  0.84449412  0.20092674    -0.86600
O181        O  0.32739167  0.64279234  0.18228977    -0.86500
O182        O  0.42533692  0.68639579  0.24752436    -0.86800
O183        O  0.41975975  0.80238434  0.25950323    -0.86300
O184        O  0.38564928  0.64064112  0.24040965    -0.87300
O185        O  0.37379382  0.84251385  0.26373012    -0.86500
O186        O  0.32000176  0.67235130  0.34524474    -0.86900
O187        O  0.32780093  0.69050450  0.14392877    -0.86600
O188        O  0.32436889  0.80559735  0.15383897    -0.86300
O189        O  0.31384243  0.78684630  0.35431611    -0.86700
O190        O  0.42016752  0.73748407  0.31139034    -0.87000
O191        O  0.42391124  0.74964295  0.19530629    -0.88300
Zr192      Zr  0.31840390  0.73193692  0.32009090     2.83100
Zr193      Zr  0.32484619  0.74541531  0.17794854     2.83500
Zr194      Zr  0.32615537  0.66683459  0.24258601     2.84100
Zr195      Zr  0.31802242  0.81025753  0.25600066     2.83400
Zr196      Zr  0.39350923  0.74281114  0.25238893     2.84200
O197        O  0.35729843  0.78031679  0.21818206    -1.08900
O198        O  0.35826388  0.70148052  0.28321930    -1.08400
C199        C  0.40780999  0.73303786  0.34317318     1.06300
C200        C  0.41507696  0.75090638  0.16196525     1.08900
C201        C  0.32317717  0.64078352  0.33206333     1.06400
C202        C  0.31354113  0.82065558  0.34763499     1.06800
C203        C  0.32325616  0.83711776  0.16747283     1.06400
C204        C  0.32781885  0.65677146  0.15076096     1.05900
C205        C  0.41756517  0.65326140  0.24238197     1.06400
C206        C  0.40708528  0.83422031  0.26379864     1.05900
H207        H  0.37732682  0.69553038  0.19621103     0.32600
O208        O  0.36135593  0.70808866  0.21186146    -1.30000
H209        H  0.36762057  0.78688980  0.30723756     0.32600
O210        O  0.35436223  0.77297434  0.29017927    -1.31400
C211        C  0.49820429  0.24078634  0.46924510     0.79900
N212        N  0.53427066  0.24133759  0.46814673    -0.78400
C213        C  0.55339333  0.24455315  0.49884466     0.82300
N214        N  0.53618988  0.24764975  0.53059723    -0.78400
C215        C  0.50012288  0.24763141  0.53170534     0.82400
N216        N  0.48168837  0.24442560  0.50088884    -0.80100
C217        C  0.31050263  0.06260353  0.46818016     0.79900
N218        N  0.31046977  0.08074029  0.49928422    -0.78400
C219        C  0.30934475  0.06305545  0.53079541     0.82300
N220        N  0.30764615  0.02685814  0.53108700    -0.78400
C221        C  0.30760947  0.00838289  0.49995081     0.82400
N222        N  0.30912646  0.02637117  0.46843714    -0.80100
O223        O  0.32107394  0.13148871  0.79937147    -0.86800
O224        O  0.33122454  0.33316957  0.81682742    -0.87000
O225        O  0.38771365  0.22520061  0.84659374    -0.88600
O226        O  0.27467000  0.23047361  0.85637455    -0.87400
O227        O  0.22779674  0.23849043  0.81813943    -0.87000
O228        O  0.42694219  0.22645785  0.79999277    -0.88400
O229        O  0.33341160  0.28546118  0.85511923    -0.86800
O230        O  0.32694168  0.17046180  0.84588223    -0.86400
Zr231      Zr  0.32880186  0.23052946  0.82134498     2.84300
O232        O  0.29230194  0.27214065  0.79271198    -1.08400
O233        O  0.36003402  0.19636293  0.77984625    -1.09100
C234        C  0.32375774  0.13881906  0.83292547     1.06300
C235        C  0.33271534  0.31920202  0.84833723     1.06200
C236        C  0.41924538  0.22414436  0.83346240     1.09200
C237        C  0.24127849  0.23398824  0.84960201     1.07000
H238        H  0.37971007  0.28075116  0.80121820     0.32600
O239        O  0.36328600  0.26823698  0.78597994    -1.29400
H240        H  0.27375408  0.18427304  0.80104065     0.32200
O241        O  0.28805602  0.19968163  0.78624807    -1.31000
O242        O  0.32319332  0.34347842  0.70089353    -0.86800
O243        O  0.31229025  0.14215350  0.68418670    -0.88300
O244        O  0.42628363  0.29051497  0.75085304    -0.86900
O245        O  0.22519437  0.30015930  0.76510942    -0.86900
O246        O  0.22048800  0.18435974  0.75501414    -0.86600
O247        O  0.42121289  0.17543506  0.73715681    -0.86500
O248        O  0.37169534  0.24679164  0.64592736    -0.86800
O249        O  0.25604018  0.24701819  0.65499367    -0.86300
O250        O  0.41863803  0.24250214  0.68450936    -0.87300
O251        O  0.21789313  0.24672274  0.70236696    -0.86500
O252        O  0.38593106  0.33603370  0.75723435    -0.86900
O253        O  0.37565678  0.13478908  0.73867263    -0.86600
O254        O  0.26043250  0.13898825  0.74560748    -0.86300
O255        O  0.27069203  0.34084847  0.76487686    -0.86700
O256        O  0.31449658  0.30471791  0.65442480    -0.87000
O257        O  0.31036988  0.18954390  0.64530433    -0.88300
Zr258      Zr  0.32674029  0.30944186  0.75650616     2.83100
Zr259      Zr  0.31916784  0.16602065  0.74410272     2.83500
Zr260      Zr  0.39423552  0.23435183  0.74411001     2.84100
Zr261      Zr  0.25161013  0.24126396  0.75746674     2.83400
Zr262      Zr  0.31625213  0.24451905  0.67927521     2.84200
O263        O  0.28204923  0.20711296  0.71531563    -1.08900
O264        O  0.35744813  0.27542270  0.71445196    -1.08400
C265        C  0.31849356  0.33630125  0.66753405     1.06300
C266        C  0.30954534  0.15587811  0.65267272     1.08900
C267        C  0.41790497  0.32354183  0.75603650     1.06400
C268        C  0.23761955  0.33220289  0.76742438     1.06800
C269        C  0.22878114  0.15122433  0.75052016     1.06400
C270        C  0.40885515  0.14328202  0.73683398     1.05900
C271        C  0.40524946  0.24653231  0.65297787     1.06400
C272        C  0.22458940  0.24714957  0.66869450     1.05900
H273        H  0.36650765  0.18948638  0.69064182     0.32600
O274        O  0.35375175  0.20341811  0.70802756    -1.30000
H275        H  0.27022889  0.29558576  0.70904906     0.32600
O276        O  0.28562459  0.27883627  0.72116169    -1.31400
C277        C  0.49564094  0.74901835  0.46671487     0.79900
N278        N  0.53155286  0.74886697  0.46769343    -0.78400
C279        C  0.54894042  0.75013476  0.49938101     0.82300
N280        N  0.53003439  0.75140558  0.53033453    -0.78400
C281        C  0.49387760  0.75211166  0.52924633     0.82400
N282        N  0.47703473  0.75021599  0.49744580    -0.80100
C283        C  0.29957009  0.91547739  0.53269783     0.79900
N284        N  0.30099338  0.89700209  0.50177131    -0.78400
C285        C  0.30407460  0.91419724  0.47004059     0.82300
N286        N  0.30629577  0.95040401  0.46956135    -0.78400
C287        C  0.30517409  0.96921321  0.50049086     0.82400
N288        N  0.30212449  0.95160118  0.53207101    -0.80100
C289        C  0.31250463  0.45827682  0.57326039     0.79900
N290        N  0.31616614  0.49006429  0.59000073    -0.78400
C291        C  0.31626329  0.52099017  0.57113465     0.82300
N292        N  0.31231864  0.52017748  0.53530756    -0.78400
C293        C  0.30893134  0.48849853  0.51826457     0.82400
N294        N  0.30926256  0.45750629  0.53724120    -0.80100
C295        C  0.14408466  0.45359784  0.77590252     0.79900
N296        N  0.16257808  0.48462887  0.77512080    -0.78400
C297        C  0.14565979  0.51658534  0.77484002     0.82300
N298        N  0.10960123  0.51742194  0.77506424    -0.78400
C299        C  0.09066889  0.48648992  0.77610697     0.82400
N300        N  0.10804672  0.45462882  0.77642435    -0.80100
O301        O  0.27154800  0.73414031  0.85512393    -0.86800
O302        O  0.25228540  0.72739376  0.65372037    -0.87000
O303        O  0.21383284  0.78678855  0.75383645    -0.88600
O304        O  0.22417920  0.67065483  0.75971086    -0.87400
O305        O  0.27107019  0.63172941  0.75657559    -0.87000
O306        O  0.25296442  0.83336227  0.74696447    -0.88400
O307        O  0.21398707  0.72497944  0.70094719    -0.86800
O308        O  0.22473072  0.73147669  0.81589459    -0.86400
Zr309      Zr  0.24819304  0.73118637  0.75558385     2.84300
O310        O  0.28341196  0.69723200  0.71720769    -1.08400
O311        O  0.28389047  0.77120401  0.78727103    -1.09100
C312        C  0.23811299  0.73214656  0.84760214     1.06300
C313        C  0.22092870  0.72404421  0.66735456     1.06200
C314        C  0.22138155  0.82022439  0.74961116     1.09200
C315        C  0.23771854  0.63891886  0.75894756     1.07000
H316        H  0.26004015  0.78187585  0.70099778     0.32600
O317        O  0.27718196  0.76893275  0.71519402    -1.29400
H318        H  0.27825654  0.68338309  0.80559680     0.32200
O319        O  0.29015271  0.69911985  0.78907749    -1.31000
O320        O  0.36744320  0.74002397  0.64280776    -0.86800
O321        O  0.38641632  0.74702682  0.84437987    -0.88300
O322        O  0.30872478  0.83703587  0.68865307    -0.86900
O323        O  0.32203014  0.63562699  0.69300018    -0.86900
O324        O  0.33456121  0.63704804  0.80803877    -0.86600
O325        O  0.31164375  0.83871650  0.80424503    -0.86500
O326        O  0.41464498  0.80289329  0.73802258    -0.86800
O327        O  0.42372033  0.68674513  0.74625588    -0.86300
O328        O  0.36855017  0.84266736  0.74362042    -0.87300
O329        O  0.38495154  0.63976671  0.74967120    -0.86500
O330        O  0.30545076  0.79237804  0.64697021    -0.86900
O331        O  0.32113923  0.79745730  0.84867134    -0.86600
O332        O  0.33602446  0.68178940  0.84959057    -0.86300
O333        O  0.31430131  0.67710207  0.64857499    -0.86700
O334        O  0.41417909  0.74305450  0.68216281    -0.87000
O335        O  0.42417508  0.74758439  0.79690537    -0.88300
Zr336      Zr  0.31257069  0.73504118  0.67710901     2.83100
Zr337      Zr  0.32613089  0.73919779  0.82052812     2.83500
Zr338      Zr  0.31307734  0.80877550  0.74691345     2.84100
Zr339      Zr  0.32556295  0.66553354  0.75042463     2.83400
Zr340      Zr  0.39016735  0.74269609  0.74215638     2.84200
O341        O  0.36123169  0.70518534  0.78228088    -1.08900
O342        O  0.34845452  0.77486826  0.70869868    -1.08400
C343        C  0.40087397  0.74212564  0.65048020     1.06300
C344        C  0.41780616  0.74935103  0.83051866     1.08900
C345        C  0.30594673  0.82550505  0.65642752     1.06400
C346        C  0.31781824  0.64483642  0.66002820     1.06800
C347        C  0.33768978  0.64866382  0.84018975     1.06400
C348        C  0.31518394  0.82945912  0.83720504     1.05900
C349        C  0.40182141  0.83481639  0.74031911     1.06400
C350        C  0.41651403  0.65306680  0.74916147     1.05900
H351        H  0.36965698  0.79362977  0.79357530     0.32600
O352        O  0.35508201  0.77705654  0.78042048    -1.30000
H353        H  0.36972129  0.68849505  0.69440897     0.32600
O354        O  0.35499753  0.70265135  0.70995066    -1.31400
C355        C  0.81001422  0.51867056  0.42531418     0.79900
N356        N  0.81311846  0.48752866  0.40741500    -0.78400
C357        C  0.81617061  0.45601551  0.42507554     0.82300
N358        N  0.81643701  0.45609648  0.46125082    -0.78400
C359        C  0.81352249  0.48735346  0.47940574     0.82400
N360        N  0.81062692  0.51860184  0.46135374    -0.80100
C361        C  0.99699602  0.51906446  0.23977330     0.79900
N362        N  0.97920912  0.48832289  0.23455364    -0.78400
C363        C  0.99625678  0.45731601  0.22814949     0.82300
N364        N  0.03244996  0.45711408  0.22820862    -0.78400
C365        C  0.05082821  0.48807022  0.23342918     0.82400
N366        N  0.03293024  0.51915800  0.23866756    -0.80100
C367        C  0.60193959  0.55873068  0.25163524     0.79900
N368        N  0.60198327  0.52258875  0.25118785    -0.78400
C369        C  0.57106070  0.50437262  0.24775507     0.82300
N370        N  0.53988885  0.52250450  0.24482369    -0.78400
C371        C  0.53941289  0.55873491  0.24564590     0.82400
N372        N  0.57064376  0.57649056  0.24912558    -0.80100
C373        C  0.60240418  0.75029510  0.07337393     0.79900
N374        N  0.60229284  0.75231617  0.03734216    -0.78400
C375        C  0.57109823  0.75556885  0.01933523     0.82300
N376        N  0.54000031  0.75721668  0.03766900    -0.78400
C377        C  0.54022968  0.75575350  0.07389401     0.82400
N378        N  0.57142806  0.75162649  0.09137933    -0.80100
O379        O  0.82350186  0.83909006  0.19551496    -0.86800
O380        O  0.80594914  0.63687871  0.18931047    -0.87000
O381        O  0.86856692  0.73799426  0.14352703    -0.88600
O382        O  0.75411895  0.74288696  0.15303787    -0.87400
O383        O  0.71497528  0.74286292  0.19990578    -0.87000
O384        O  0.91552108  0.73357752  0.18217137    -0.88400
O385        O  0.80628690  0.68167284  0.14750182    -0.86800
O386        O  0.81575980  0.79871601  0.15048591    -0.86400
Zr387      Zr  0.81371578  0.73901069  0.17751521     2.84300
O388        O  0.77825434  0.70460703  0.21538526    -1.08400
O389        O  0.85475112  0.77109061  0.21136568    -1.09100
C390        C  0.82015102  0.83080048  0.16249981     1.06300
C391        C  0.80421550  0.64848613  0.15698709     1.06200
C392        C  0.90208053  0.73728748  0.15058947     1.09200
C393        C  0.72264605  0.74304469  0.16644716     1.07000
H394        H  0.86217557  0.68302601  0.19207337     0.32600
O395        O  0.84977455  0.69839513  0.20848674    -1.29400
H396        H  0.76912828  0.79267714  0.20383811     0.32200
O397        O  0.78389382  0.77639040  0.21729101    -1.31000
O398        O  0.81524503  0.63439707  0.30445120    -0.86800
O399        O  0.83089068  0.83558250  0.31015143    -0.88300
O400        O  0.91531738  0.67125928  0.24049582    -0.86900
O401        O  0.71556774  0.68635981  0.25691416    -0.86900
O402        O  0.72294529  0.80185724  0.25617539    -0.86600
O403        O  0.92405854  0.78598211  0.24247274    -0.86500
O404        O  0.88599135  0.72654359  0.34422420    -0.86800
O405        O  0.77051954  0.73720306  0.35359787    -0.86300
O406        O  0.92474763  0.72440596  0.29717565    -0.87300
O407        O  0.72362982  0.74242221  0.31502275    -0.86500
O408        O  0.86974103  0.63092095  0.24477430    -0.86900
O409        O  0.88507127  0.83276463  0.24713264    -0.86600
O410        O  0.76916644  0.84164482  0.25370214    -0.86300
O411        O  0.75455255  0.63965025  0.25213260    -0.86700
O412        O  0.82238757  0.67557151  0.34898462    -0.87000
O413        O  0.83233269  0.79017718  0.35146573    -0.88300
Zr414      Zr  0.81417878  0.66461892  0.24714051     2.83100
Zr415      Zr  0.82509228  0.80804670  0.25172851     2.83500
Zr416      Zr  0.89060969  0.73080771  0.24243552     2.84100
Zr417      Zr  0.74860527  0.74204559  0.25523643     2.83400
Zr418      Zr  0.82599722  0.73372226  0.32046233     2.84200
O419        O  0.78950787  0.77404336  0.28970616    -1.08900
O420        O  0.85567232  0.69634660  0.28067884    -1.08400
C421        C  0.81802489  0.64348570  0.33749522     1.06300
C422        C  0.83259120  0.82340179  0.34232179     1.08900
C423        C  0.90294279  0.63930459  0.24224759     1.06400
C424        C  0.72301949  0.65278816  0.25575618     1.06800
C425        C  0.73573329  0.83381697  0.25470909     1.06400
C426        C  0.91663261  0.81953151  0.24373397     1.05900
C427        C  0.91736793  0.72352857  0.33070160     1.06400
C428        C  0.73702573  0.73965328  0.34663599     1.05900
H429        H  0.87872826  0.78122457  0.29699098     0.32600
O430        O  0.86158149  0.76821317  0.28296191    -1.30000
H431        H  0.76972762  0.68789772  0.30260268     0.32600
O432        O  0.78441231  0.70197997  0.28691277    -1.31400
C433        C  0.64165446  0.74344331  0.53159636     0.79900
N434        N  0.65949511  0.74251829  0.50027404    -0.78400
C435        C  0.64224566  0.74463955  0.46853657     0.82300
N436        N  0.60625523  0.74732668  0.46848940    -0.78400
C437        C  0.58793785  0.74835253  0.49976351     0.82400
N438        N  0.60574853  0.74616321  0.53121862    -0.80100
C439        C  0.83543957  0.91236776  0.52649790     0.79900
N440        N  0.83643280  0.89591758  0.49440401    -0.78400
C441        C  0.83887307  0.91519414  0.46386183     0.82300
N442        N  0.83922959  0.95141049  0.46527787    -0.78400
C443        C  0.83776030  0.96819740  0.49734583     0.82400
N444        N  0.83576141  0.94856183  0.52779546    -0.80100
C445        C  0.60381059  0.56260878  0.76559120     0.79900
N446        N  0.60298553  0.52659577  0.76914665    -0.78400
C447        C  0.57143445  0.50943675  0.77254620     0.82300
N448        N  0.54060465  0.52855933  0.77225072    -0.78400
C449        C  0.54142703  0.56474073  0.76909103     0.82400
N450        N  0.57303425  0.58127614  0.76516009    -0.80100
C451        C  0.54050926  0.75681136  0.92537920     0.79900
N452        N  0.54034054  0.75776525  0.96155611    -0.78400
C453        C  0.57132446  0.75652764  0.98024599     0.82300
N454        N  0.60274844  0.75473593  0.96261917    -0.78400
C455        C  0.60337310  0.75438121  0.92653033     0.82400
N456        N  0.57221904  0.75505134  0.90830452    -0.80100
C457        C  0.81244089  0.51861370  0.57273823     0.79900
N458        N  0.81248258  0.48701135  0.59035848    -0.78400
C459        C  0.81302757  0.45590464  0.57230285     0.82300
N460        N  0.81383701  0.45602312  0.53630213    -0.78400
C461        C  0.81346623  0.48745002  0.51831616     0.82400
N462        N  0.81261111  0.51880472  0.53655198    -0.80100
C463        C  0.99821954  0.52044736  0.77920958     0.79900
N464        N  0.97967693  0.48987770  0.77423139    -0.78400
C465        C  0.99650922  0.45827968  0.76972947     0.82300
N466        N  0.03256293  0.45700465  0.77099979    -0.78400
C467        C  0.05157444  0.48749613  0.77604684     0.82400
N468        N  0.03427009  0.51913480  0.78010786    -0.80100
O469        O  0.87502788  0.74673796  0.85055718    -0.86800
O470        O  0.88188440  0.72605344  0.64916514    -0.87000
O471        O  0.91711427  0.67372609  0.76436176    -0.88600
O472        O  0.92419609  0.78966654  0.74404182    -0.87400
O473        O  0.88442411  0.83533503  0.73578633    -0.87000
O474        O  0.87136619  0.63349059  0.76682443    -0.88400
O475        O  0.92312631  0.72507273  0.69441956    -0.86800
O476        O  0.92022873  0.73945365  0.81025250    -0.86400
Zr477      Zr  0.89260857  0.73319312  0.75168513     2.84300
O478        O  0.86049198  0.76779382  0.71075995    -1.08400
O479        O  0.85290943  0.70416747  0.78985187    -1.09100
C480        C  0.90823355  0.74422485  0.84209129     1.06300
C481        C  0.91398523  0.72409054  0.66111262     1.06200
C482        C  0.90449112  0.64191643  0.76923686     1.09200
C483        C  0.91628682  0.82267229  0.73760564     1.07000
H484        H  0.87066823  0.67788244  0.70574021     0.32600
O485        O  0.85633715  0.69526750  0.71808534    -1.29400
H486        H  0.87276878  0.79070098  0.79550460     0.32200
O487        O  0.85753942  0.77511107  0.78189072    -1.31000
O488        O  0.76771288  0.72971848  0.64558972    -0.86800
O489        O  0.75785980  0.74866183  0.84633070    -0.88300
O490        O  0.81561187  0.63114250  0.70241651    -0.86900
O491        O  0.82519819  0.83255480  0.67994725    -0.86900
O492        O  0.82713243  0.84429897  0.79601402    -0.86600
O493        O  0.81324709  0.64383365  0.81764341    -0.86500
O494        O  0.71755367  0.68670082  0.74631610    -0.86800
O495        O  0.72381119  0.80165366  0.73964890    -0.86300
O496        O  0.75701588  0.64093114  0.75532207    -0.87300
O497        O  0.76946676  0.84218711  0.73737387    -0.86500
O498        O  0.81896877  0.66967228  0.65496240    -0.86900
O499        O  0.81474389  0.69157389  0.85536898    -0.86600
O500        O  0.81973843  0.80581071  0.84321721    -0.86300
O501        O  0.82450854  0.78482244  0.64182043    -0.86700
O502        O  0.72269995  0.73814217  0.68553477    -0.87000
O503        O  0.71764771  0.74635211  0.80045265    -0.88300
Zr504      Zr  0.82388844  0.73029442  0.67736501     2.83100
Zr505      Zr  0.81762035  0.74566839  0.81980630     2.83500
Zr506      Zr  0.81651767  0.66642548  0.75661771     2.84100
Zr507      Zr  0.82536474  0.80955565  0.74091689     2.83400
Zr508      Zr  0.74977763  0.74240216  0.74467601     2.84200
O509        O  0.78552120  0.78029747  0.77886510    -1.08900
O510        O  0.78465052  0.70047777  0.71507240    -1.08400
C511        C  0.73467812  0.73303387  0.65369961     1.06300
C512        C  0.72575015  0.74738030  0.83380648     1.08900
C513        C  0.81588453  0.63820566  0.66876561     1.06400
C514        C  0.82440544  0.81859010  0.64848679     1.06800
C515        C  0.82401503  0.83713850  0.82958493     1.06400
C516        C  0.81377341  0.65781357  0.84910474     1.05900
C517        C  0.72540452  0.65351213  0.75044786     1.06400
C518        C  0.73625944  0.83365380  0.73767969     1.05900
H519        H  0.76503526  0.69522263  0.80168759     0.32600
O520        O  0.78120657  0.70793175  0.78631825    -1.30000
H521        H  0.77507476  0.78619109  0.69029691     0.32600
O522        O  0.78882608  0.77226262  0.70706299    -1.31400
C523        C  0.54100048  0.41060166  0.24368284     0.79900
N524        N  0.54060254  0.44679239  0.24518705    -0.78400
C525        C  0.57155369  0.46530628  0.24648413     0.82300
N526        N  0.60302574  0.44749857  0.24627887    -0.78400
C527        C  0.60350854  0.41133114  0.24492923     0.82400
N528        N  0.57250660  0.39307017  0.24417721    -0.80100
C529        C  0.60205717  0.22843357  0.07593567     0.79900
N530        N  0.60212487  0.22808784  0.03978025    -0.78400
C531        C  0.57101489  0.22575407  0.02149319     0.82300
N532        N  0.53984101  0.22315021  0.03954729    -0.78400
C533        C  0.53980163  0.22252996  0.07573153     0.82400
N534        N  0.57093825  0.22546948  0.09357014    -0.80100
O535        O  0.87659023  0.23288555  0.14567020    -0.86800
O536        O  0.88351051  0.24593827  0.34800346    -0.87000
O537        O  0.92158594  0.29822011  0.23618690    -0.88600
O538        O  0.92620505  0.18428510  0.24918825    -0.87400
O539        O  0.88654767  0.13824346  0.25470346    -0.87000
O540        O  0.87568824  0.33793129  0.23345438    -0.88400
O541        O  0.92459487  0.24606833  0.30284780    -0.86800
O542        O  0.92162651  0.23792528  0.18678370    -0.86400
Zr543      Zr  0.89412360  0.24008227  0.24539057     2.84300
O544        O  0.86195642  0.20536021  0.28580117    -1.08400
O545        O  0.85484743  0.27064752  0.20785419    -1.09100
C546        C  0.90962796  0.23595432  0.15461041     1.06300
C547        C  0.91551625  0.24722151  0.33604449     1.06200
C548        C  0.90911717  0.33000273  0.23195091     1.09200
C549        C  0.91842406  0.15103401  0.25278743     1.07000
H550        H  0.87305771  0.29432767  0.29235170     0.32600
O551        O  0.85832185  0.27754883  0.27971872    -1.29400
H552        H  0.87431603  0.18350068  0.19935678     0.32200
O553        O  0.85944680  0.19882715  0.21360975    -1.31000
O554        O  0.76879318  0.24356710  0.35097448    -0.86800
O555        O  0.76091590  0.22629313  0.14924047    -0.88300
O556        O  0.82065814  0.34171817  0.29713784    -0.86900
O557        O  0.83006301  0.14001707  0.31433187    -0.86900
O558        O  0.82189693  0.13049215  0.19945041    -0.86600
O559        O  0.81455747  0.33212065  0.18192477    -0.86500
O560        O  0.71984142  0.28895481  0.24885906    -0.86800
O561        O  0.72415501  0.17483331  0.25771955    -0.86300
O562        O  0.75966217  0.33493394  0.24288188    -0.87300
O563        O  0.76952560  0.13426755  0.25997281    -0.86500
O564        O  0.82492334  0.30280086  0.34417744    -0.86900
O565        O  0.81450016  0.28511160  0.14267454    -0.86600
O566        O  0.81782719  0.16971336  0.15252199    -0.86300
O567        O  0.82818989  0.18696787  0.35352430    -0.86700
O568        O  0.72422159  0.23500649  0.31005995    -0.87000
O569        O  0.72074445  0.22775274  0.19501342    -0.88300
Zr570      Zr  0.82552041  0.24261924  0.31982831     2.83100
Zr571      Zr  0.81972089  0.22991902  0.17661498     2.83500
Zr572      Zr  0.81885215  0.30789054  0.24197659     2.84100
Zr573      Zr  0.82686240  0.16457225  0.25434673     2.83400
Zr574      Zr  0.75178524  0.23276544  0.25147718     2.84200
O575        O  0.78746357  0.19533173  0.21705427    -1.08900
O576        O  0.78629488  0.27389871  0.28277232    -1.08400
C577        C  0.73588812  0.23961025  0.34207105     1.06300
C578        C  0.72900173  0.22651122  0.16169805     1.08900
C579        C  0.82335405  0.33453932  0.33067152     1.06400
C580        C  0.82978981  0.15337871  0.34596488     1.06800
C581        C  0.81798161  0.13797321  0.16607240     1.06400
C582        C  0.81316727  0.31863277  0.15035789     1.05900
C583        C  0.72791376  0.32227539  0.24622162     1.06400
C584        C  0.73617046  0.14279912  0.26052113     1.05900
H585        H  0.76730643  0.28026277  0.19558304     0.32600
O586        O  0.78357715  0.26731865  0.21077584    -1.30000
H587        H  0.77713108  0.18742372  0.30543260     0.32600
O588        O  0.79063728  0.20158941  0.28880012    -1.31400
C589        C  0.53750155  0.41710156  0.77302389     0.79900
N590        N  0.56815465  0.39807156  0.77347334    -0.78400
C591        C  0.60009514  0.41455428  0.77453131     0.82300
N592        N  0.60122640  0.45090118  0.77435722    -0.78400
C593        C  0.57054381  0.47027262  0.77425018     0.82400
N594        N  0.53879416  0.45321357  0.77368989    -0.80100
C595        C  0.53950680  0.22351419  0.92824966     0.79900
N596        N  0.57070568  0.22446269  0.91035201    -0.78400
C597        C  0.60212977  0.22641246  0.92797403     0.82300
N598        N  0.60220055  0.22681342  0.96416404    -0.78400
C599        C  0.57104873  0.22564958  0.98241665     0.82400
N600        N  0.53979902  0.22388962  0.96435306    -0.80100
C601        C  0.64747180  0.23888964  0.52776250     0.79900
N602        N  0.66444349  0.24140340  0.49606456    -0.78400
C603        C  0.64589848  0.24507735  0.46526457     0.82300
N604        N  0.60984265  0.24575018  0.46606764    -0.78400
C605        C  0.59248900  0.24393421  0.49779964     0.82400
N606        N  0.61143775  0.24073737  0.52858240    -0.80100
C607        C  0.83109618  0.06304250  0.47027287     0.79900
N608        N  0.83382288  0.02695178  0.46864047    -0.78400
C609        C  0.83632256  0.00735561  0.49911513     0.82300
N610        N  0.83661927  0.02411473  0.53126538    -0.78400
C611        C  0.83432081  0.06026196  0.53296318     0.82400
N612        N  0.83177494  0.07940198  0.50233521    -0.80100
O613        O  0.87017396  0.23574692  0.85469089    -0.86800
O614        O  0.88564869  0.24493575  0.65326617    -0.87000
O615        O  0.92469607  0.18745134  0.75468493    -0.88600
O616        O  0.91683051  0.30353755  0.75868652    -0.87400
O617        O  0.87126612  0.34416561  0.75544716    -0.87000
O618        O  0.88520232  0.14155003  0.74790475    -0.88400
O619        O  0.92471238  0.24674722  0.70008432    -0.86800
O620        O  0.91634494  0.23970588  0.81548060    -0.86400
Zr621      Zr  0.89162431  0.24360576  0.75535991     2.84300
O622        O  0.85635456  0.27926655  0.71794671    -1.08400
O623        O  0.85592360  0.20359863  0.78678079    -1.09100
C624        C  0.90348850  0.23679561  0.84727330     1.06300
C625        C  0.91745486  0.24547522  0.66654644     1.06200
C626        C  0.91699951  0.15399756  0.75104356     1.09200
C627        C  0.90446107  0.33571473  0.75807298     1.07000
H628        H  0.87799252  0.19413126  0.70051982     0.32600
O629        O  0.86135356  0.20745557  0.71477143    -1.29400
H630        H  0.86431846  0.29036393  0.80611700     0.32200
O631        O  0.85113468  0.27556441  0.78976225    -1.31000
O632        O  0.76903380  0.23955818  0.64571254    -0.86800
O633        O  0.75558061  0.23202388  0.84713483    -0.88300
O634        O  0.83138995  0.14065222  0.68716927    -0.86900
O635        O  0.81609814  0.34200067  0.69501442    -0.86900
O636        O  0.81354666  0.33793665  0.81124715    -0.86600
O637        O  0.82604411  0.13585158  0.80199968    -0.86500
O638        O  0.72425852  0.17395445  0.74142662    -0.86800
O639        O  0.71607742  0.29102780  0.75047511    -0.86300
O640        O  0.77073057  0.13425560  0.74217140    -0.87300
O641        O  0.75599108  0.33697670  0.75509626    -0.86500
O642        O  0.83077342  0.18644242  0.64660574    -0.86900
O643        O  0.81810684  0.17569632  0.84751830    -0.86600
O644        O  0.81280263  0.29241172  0.85247001    -0.86300
O645        O  0.82427103  0.30112055  0.65021584    -0.86700
O646        O  0.72300135  0.23596489  0.68551123    -0.87000
O647        O  0.71608619  0.23046129  0.80057061    -0.88300
Zr648      Zr  0.82534905  0.24272470  0.67811296     2.83100
Zr649      Zr  0.81508833  0.23546485  0.82126155     2.83500
Zr650      Zr  0.82568138  0.16765255  0.74598826     2.84100
Zr651      Zr  0.81554995  0.31105070  0.75239925     2.83400
Zr652      Zr  0.74884649  0.23461895  0.74483875     2.84200
O653        O  0.77975397  0.27125475  0.78442889    -1.08900
O654        O  0.78927622  0.20283223  0.70950707    -1.08400
C655        C  0.73568708  0.23763334  0.65369048     1.06300
C656        C  0.72381651  0.22999742  0.83409551     1.08900
C657        C  0.83304376  0.15314026  0.65507884     1.06400
C658        C  0.82010591  0.33308951  0.66203214     1.06800
C659        C  0.81290001  0.32572938  0.84341550     1.06400
C660        C  0.82295710  0.14388979  0.83512332     1.05900
C661        C  0.73738429  0.14195494  0.74149267     1.06400
C662        C  0.72406474  0.32442517  0.75446723     1.05900
H663        H  0.77016868  0.18221497  0.79455325     0.32600
O664        O  0.78468773  0.19877135  0.78129441    -1.30000
H665        H  0.76931568  0.28944956  0.69753141     0.32600
O666        O  0.78426381  0.27476384  0.71255994    -1.31400
O667        O  0.26767460  0.23425141  0.14786159    -0.86800
O668        O  0.25933479  0.24803430  0.34934521    -0.87000
O669        O  0.21827739  0.18404305  0.24562602    -0.88600
O670        O  0.22218299  0.30106561  0.24159695    -0.87400
O671        O  0.26781119  0.34163307  0.23938365    -0.87000
O672        O  0.25927360  0.13885476  0.24936949    -0.88400
O673        O  0.21858038  0.24752074  0.30393685    -0.86800
O674        O  0.22230964  0.23879258  0.18837734    -0.86400
Zr675      Zr  0.24918555  0.24170707  0.24697628     2.84300
O676        O  0.28519486  0.27797926  0.28224377    -1.08400
O677        O  0.28531921  0.20312386  0.21430560    -1.09100
C678        C  0.23457057  0.23542871  0.15654492     1.06300
C679        C  0.22724119  0.24951692  0.33726659     1.06200
C680        C  0.22716356  0.15060893  0.24651949     1.09200
C681        C  0.23461094  0.33312479  0.23869111     1.07000
H682        H  0.26542636  0.19191575  0.30119156     0.32600
O683        O  0.28146188  0.20549719  0.28640092    -1.29400
H684        H  0.27457281  0.28907675  0.19397955     0.32200
O685        O  0.28796551  0.27447831  0.21048575    -1.31000
O686        O  0.37424294  0.24205680  0.35334120    -0.86800
O687        O  0.38337124  0.23012414  0.15252890    -0.88300
O688        O  0.31564399  0.13962932  0.31204637    -0.86900
O689        O  0.31900893  0.34276340  0.30139444    -0.86900
O690        O  0.32910789  0.33753280  0.18752269    -0.86600
O691        O  0.31842785  0.13651143  0.19559017    -0.86500
O692        O  0.41930417  0.17587741  0.25956825    -0.86800
O693        O  0.42335311  0.29155902  0.25156388    -0.86300
O694        O  0.37389872  0.13506644  0.25752841    -0.87300
O695        O  0.38287166  0.33724396  0.24754906    -0.86500
O696        O  0.31547730  0.18508589  0.35312312    -0.86900
O697        O  0.32289560  0.17781273  0.15071967    -0.86600
O698        O  0.32801979  0.29232047  0.14657301    -0.86300
O699        O  0.31614356  0.30207236  0.34724536    -0.86700
O700        O  0.41957256  0.23715953  0.31297733    -0.87000
O701        O  0.42420524  0.22983464  0.19789108    -0.88300
Zr702      Zr  0.31759275  0.24222066  0.32176160     2.83100
Zr703      Zr  0.32454961  0.23573229  0.17870611     2.83500
Zr704      Zr  0.31756641  0.16680607  0.25320787     2.84100
Zr705      Zr  0.32418134  0.31023062  0.24609637     2.83400
Zr706      Zr  0.39237130  0.23500576  0.25407933     2.84200
O707        O  0.36080013  0.27148346  0.21418048    -1.08900
O708        O  0.35317169  0.20257621  0.28968884    -1.08400
C709        C  0.40744078  0.23987235  0.34495599     1.06300
C710        C  0.41544370  0.22858628  0.16458680     1.08900
C711        C  0.31538902  0.15179926  0.34413544     1.06400
C712        C  0.31594698  0.33415244  0.33449218     1.06800
C713        C  0.32944216  0.32561573  0.15537627     1.06400
C714        C  0.32046064  0.14559846  0.16234518     1.05900
C715        C  0.40701313  0.14369064  0.25952654     1.06400
C716        C  0.41478436  0.32484384  0.24919999     1.05900
H717        H  0.37160061  0.18286674  0.20434740     0.32600
O718        O  0.35690997  0.19915134  0.21767892    -1.30000
H719        H  0.37137828  0.29009193  0.30095543     0.32600
O720        O  0.35681735  0.27493555  0.28615299    -1.31400
C721        C  0.85875945  0.11023000  0.56717284    -0.06100
C722        C  0.83701632  0.07984964  0.56711628    -0.00200
C723        C  0.81658664  0.07164642  0.59774701    -0.08800
C724        C  0.81735865  0.09556315  0.62667515    -0.06100
C725        C  0.83716628  0.12733559  0.62550830    -0.00200
C726        C  0.85935004  0.13421556  0.59575422    -0.08700
C727        C  0.88359483  0.16663109  0.59363061     0.61700
H728        H  0.87462238  0.11574826  0.54377284     0.12400
H729        H  0.80105057  0.09049059  0.64984872     0.12400
C730        C  0.79252618  0.03918380  0.59926514     0.62000
F731        F  0.90777173  0.16376665  0.56607205    -0.23200
F732        F  0.90266659  0.17008664  0.62494502    -0.20500
F733        F  0.86369889  0.19712566  0.58773567    -0.20200
F734        F  0.81249213  0.00836011  0.59656964    -0.20300
F735        F  0.76823441  0.04061324  0.57158912    -0.20600
F736        F  0.77384932  0.03739674  0.63094077    -0.23300
C737        C  0.65942229  0.25790613  0.58976055    -0.06100
C738        C  0.66827003  0.23553910  0.56117606    -0.00200
C739        C  0.69713836  0.21140137  0.56479191    -0.08800
C740        C  0.71802778  0.21282193  0.59577876    -0.06100
C741        C  0.71033769  0.23644214  0.62357265    -0.00200
C742        C  0.67995563  0.25877636  0.62118511    -0.08700
C743        C  0.67010504  0.28453014  0.65077952     0.61700
H744        H  0.63682652  0.27557762  0.58678958     0.12400
H745        H  0.74092167  0.19546372  0.59847793     0.12400
C746        C  0.70552564  0.18346404  0.53678107     0.62000
F747        F  0.64171350  0.30611047  0.64132796    -0.23200
F748        F  0.69867131  0.30637256  0.65848259    -0.20500
F749        F  0.66059527  0.26571594  0.68102915    -0.20200
F750        F  0.72102976  0.19943259  0.50747464    -0.20300
F751        F  0.67471907  0.16624123  0.52645249    -0.20600
F752        F  0.72877232  0.15778474  0.54970274    -0.23300
C753        C  0.63704487  0.20252245  0.87814630    -0.06100
C754        C  0.63554194  0.22606885  0.90708307    -0.00200
C755        C  0.66431930  0.24968358  0.91332178    -0.08800
C756        C  0.69298618  0.24978383  0.88916580    -0.06100
C757        C  0.69373406  0.22705010  0.85944903    -0.00200
C758        C  0.66579655  0.20216279  0.85447424    -0.08700
C759        C  0.66656863  0.17447924  0.82501705     0.61700
H760        H  0.61508029  0.18434365  0.87398017     0.12400
H761        H  0.71482192  0.26819203  0.89290393     0.12400
C762        C  0.66443575  0.27530893  0.94457635     0.62000
F763        F  0.64132524  0.14812679  0.83012661    -0.23200
F764        F  0.69939575  0.15811530  0.82438108    -0.20500
F765        F  0.65998224  0.19055787  0.79246269    -0.20200
F766        F  0.66649512  0.25624864  0.97613424    -0.20300
F767        F  0.63374729  0.29563178  0.94427505    -0.20600
F768        F  0.69307671  0.29840480  0.94341537    -0.23300
C769        C  0.66028286  0.40438064  0.74990257    -0.06100
C770        C  0.63315349  0.39282889  0.77269869    -0.00200
C771        C  0.63748616  0.36013513  0.79154811    -0.08800
C772        C  0.66753102  0.33892351  0.78459185    -0.06100
C773        C  0.69402187  0.34969816  0.76062957    -0.00200
C774        C  0.69085500  0.38356965  0.74368727    -0.08700
C775        C  0.71854027  0.39705684  0.71776509     0.61700
H776        H  0.65683227  0.42958286  0.73609704     0.12400
H777        H  0.67054196  0.31343635  0.79802421     0.12400
C778        C  0.61105471  0.34749837  0.81935375     0.62000
F779        F  0.70834229  0.42865521  0.70139295    -0.23200
F780        F  0.72364064  0.37182863  0.69161322    -0.20500
F781        F  0.75015437  0.40326058  0.73545246    -0.20200
F782        F  0.58183823  0.33269723  0.80269742    -0.20300
F783        F  0.60039329  0.37573319  0.84047187    -0.20600
F784        F  0.62577161  0.32184157  0.84160484    -0.23300
C785        C  0.66699072  0.21419275  0.41141956    -0.06100
C786        C  0.66527295  0.24582207  0.43120746    -0.00200
C787        C  0.68488186  0.27608100  0.42016299    -0.08800
C788        C  0.70728364  0.27300870  0.39046907    -0.06100
C789        C  0.70967259  0.24117404  0.37112172    -0.00200
C790        C  0.68886588  0.21134137  0.38119830    -0.08700
C791        C  0.69080692  0.17636602  0.36097570     0.61700
H792        H  0.65177447  0.19140420  0.42048759     0.12400
H793        H  0.72342303  0.29544815  0.38221371     0.12400
C794        C  0.68160330  0.31157426  0.43924066     0.62000
F795        F  0.67065321  0.14994103  0.37696909    -0.23200
F796        F  0.72555647  0.16457542  0.35959519    -0.20500
F797        F  0.67822441  0.18128946  0.32670105    -0.20200
F798        F  0.69208490  0.30801114  0.47438982    -0.20300
F799        F  0.64667111  0.32290032  0.43798898    -0.20600
F800        F  0.70241225  0.33770687  0.42360216    -0.23300
C801        C  0.85592927  0.08091497  0.41212142    -0.06100
C802        C  0.82893833  0.08473564  0.43750382    -0.00200
C803        C  0.80140986  0.10996079  0.43181927    -0.08800
C804        C  0.80271567  0.13163000  0.40130615    -0.06100
C805        C  0.83002475  0.12834838  0.37629128    -0.00200
C806        C  0.85705976  0.10253839  0.38142059    -0.08700
C807        C  0.88764257  0.09895927  0.35543573     0.61700
H808        H  0.87661770  0.06137914  0.41700497     0.12400
H809        H  0.78247887  0.15171552  0.39688180     0.12400
C810        C  0.77048564  0.11376693  0.45743673     0.62000
F811        F  0.91345691  0.07568658  0.36787112    -0.23200
F812        F  0.90333295  0.13189291  0.35020220    -0.20500
F813        F  0.87527283  0.08617418  0.32320828    -0.20200
F814        F  0.78192173  0.12952210  0.48866227    -0.20300
F815        F  0.75631394  0.08054429  0.46498989    -0.20600
F816        F  0.74361204  0.13475190  0.44323075    -0.23300
C817        C  0.47304262  0.20185765  0.14835420    -0.06100
C818        C  0.44478117  0.22437810  0.13862681    -0.00200
C819        C  0.44623502  0.24318197  0.10570459    -0.08800
C820        C  0.47719376  0.24044403  0.08491821    -0.06100
C821        C  0.50626575  0.21967802  0.09594991    -0.00200
C822        C  0.50351192  0.19853406  0.12722526    -0.08700
C823        C  0.53254774  0.17280808  0.13902340     0.61700
H824        H  0.47137549  0.18703913  0.17314458     0.12400
H825        H  0.47955475  0.25577661  0.06053120     0.12400
C826        C  0.41625401  0.26744620  0.09329880     0.62000
F827        F  0.51907637  0.14621782  0.16081671    -0.23200
F828        F  0.55830836  0.19116925  0.15780319    -0.20500
F829        F  0.54786522  0.15625405  0.10995517    -0.20200
F830        F  0.40857159  0.29210350  0.11949685    -0.20300
F831        F  0.38634844  0.24736426  0.08595933    -0.20600
F832        F  0.42497973  0.28606518  0.06264480    -0.23300
C833        C  0.67212085  0.25289851  0.14419609    -0.06100
C834        C  0.69877052  0.22788616  0.13656345    -0.00200
C835        C  0.69461450  0.20453438  0.10722991    -0.08800
C836        C  0.66279475  0.20616654  0.08746573    -0.06100
C837        C  0.63559410  0.23024580  0.09619290    -0.00200
C838        C  0.64054498  0.25468771  0.12448813    -0.08700
C839        C  0.61315515  0.28308001  0.13362987     0.61700
H840        H  0.67611996  0.27095797  0.16633942     0.12400
H841        H  0.65855548  0.18809303  0.06539898     0.12400
C842        C  0.72303895  0.17766145  0.09722675     0.62000
F843        F  0.62635185  0.30768912  0.15772491    -0.23200
F844        F  0.58357436  0.26743008  0.14872451    -0.20500
F845        F  0.60327732  0.30145126  0.10313805    -0.20200
F846        F  0.71167837  0.15488285  0.07054641    -0.20300
F847        F  0.73210631  0.15709000  0.12652569    -0.20600
F848        F  0.75275393  0.19550104  0.08506839    -0.23300
C849        C  0.47125287  0.34111660  0.22211891    -0.06100
C850        C  0.44459003  0.35000420  0.24644811    -0.00200
C851        C  0.44808217  0.38087640  0.26784293    -0.08800
C852        C  0.47992864  0.40043635  0.26573946    -0.06100
C853        C  0.50741777  0.39035363  0.24255157    -0.00200
C854        C  0.50233855  0.36125084  0.21904540    -0.08700
C855        C  0.52848877  0.35229673  0.18959800     0.61700
H856        H  0.46742397  0.31796179  0.20530482     0.12400
H857        H  0.48391564  0.42340862  0.28272578     0.12400
C858        C  0.41892608  0.39265248  0.29317114     0.62000
F859        F  0.51458775  0.32770080  0.16588753    -0.23200
F860        F  0.55920178  0.33786659  0.20382293    -0.20500
F861        F  0.53655476  0.38289647  0.17055481    -0.20200
F862        F  0.41056190  0.36527690  0.31643502    -0.20300
F863        F  0.38892764  0.40201405  0.27398008    -0.20600
F864        F  0.42901611  0.42193891  0.31317393    -0.23300
C865        C  0.64534259  0.37156852  0.27598262    -0.06100
C866        C  0.63728033  0.39152373  0.24541988    -0.00200
C867        C  0.65982902  0.38988494  0.21537573    -0.08800
C868        C  0.69048174  0.36837205  0.21720971    -0.06100
C869        C  0.69796187  0.34759218  0.24746606    -0.00200
C870        C  0.67529716  0.34928446  0.27747697    -0.08700
C871        C  0.68252702  0.32731215  0.31078415     0.61700
H872        H  0.62733675  0.37285818  0.29839200     0.12400
H873        H  0.70796560  0.36631650  0.19446410     0.12400
C874        C  0.65033893  0.40914350  0.18102267     0.62000
F875        F  0.66040290  0.33676849  0.33856630    -0.23200
F876        F  0.71724220  0.33232089  0.32182132    -0.20500
F877        F  0.67695104  0.29161998  0.30360714    -0.20200
F878        F  0.64919222  0.44553421  0.18680733    -0.20300
F879        F  0.61744870  0.39774731  0.16918064    -0.20600
F880        F  0.67481962  0.40257546  0.15440129    -0.23300
C881        C  0.97861047  0.39778626  0.78886900    -0.06100
C882        C  0.97523263  0.42568212  0.76414799    -0.00200
C883        C  0.95012622  0.42296559  0.73609469    -0.08800
C884        C  0.92747393  0.39318306  0.73520482    -0.06100
C885        C  0.93024836  0.36550800  0.76033303    -0.00200
C886        C  0.95649811  0.36753281  0.78744573    -0.08700
C887        C  0.96066080  0.33834689  0.81521688     0.61700
H888        H  0.99824817  0.40031636  0.80984911     0.12400
H889        H  0.90715767  0.39141938  0.71487550     0.12400
C890        C  0.94777989  0.45091212  0.70672852     0.62000
F891        F  0.98410935  0.34798681  0.84195568    -0.23200
F892        F  0.97362868  0.30795832  0.79903055    -0.20500
F893        F  0.92824829  0.33101388  0.83087176    -0.20200
F894        F  0.98130645  0.45788142  0.69346111    -0.20300
F895        F  0.93330830  0.48207888  0.71990458    -0.20600
F896        F  0.92674829  0.43953328  0.67865604    -0.23300
C897        C  0.94669338  0.55459608  0.80123311    -0.06100
C898        C  0.97838200  0.55461246  0.78160642    -0.00200
C899        C  0.98756965  0.58536414  0.76155769    -0.08800
C900        C  0.96335737  0.61393640  0.75992126    -0.06100
C901        C  0.93024706  0.61263535  0.77691162    -0.00200
C902        C  0.92265185  0.58333643  0.79983951    -0.08700
C903        C  0.88976804  0.58202276  0.82314264     0.61700
H904        H  0.94027204  0.53119133  0.81699026     0.12400
H905        H  0.96986803  0.63735858  0.74446004     0.12400
C906        C  0.02217137  0.58796086  0.74111729     0.62000
F907        F  0.89366848  0.55769365  0.85077706    -0.23200
F908        F  0.86068731  0.57202851  0.80296599    -0.20500
F909        F  0.88366172  0.61505551  0.83823879    -0.20200
F910        F  0.02603155  0.55891377  0.71880708    -0.20300
F911        F  0.05011568  0.58902568  0.76497077    -0.20600
F912        F  0.02370950  0.61847879  0.72028309    -0.23300
C913        C  0.84622458  0.40523865  0.59655197    -0.06100
C914        C  0.81353720  0.42236883  0.59200804    -0.00200
C915        C  0.78253843  0.40847304  0.60781238    -0.08800
C916        C  0.78561880  0.37789995  0.62919135    -0.06100
C917        C  0.81864285  0.36200749  0.63569320    -0.00200
C918        C  0.84935184  0.37500221  0.61844001    -0.08700
C919        C  0.88504704  0.35711809  0.62336626     0.61700
H920        H  0.86941111  0.41642384  0.58367895     0.12400
H921        H  0.76241382  0.36647004  0.64152880     0.12400
C922        C  0.74672510  0.42638021  0.60261496     0.62000
F923        F  0.91147842  0.37386364  0.60396513    -0.23200
F924        F  0.88267450  0.32227716  0.61199333    -0.20500
F925        F  0.89461808  0.35752335  0.65889949    -0.20200
F926        F  0.73970759  0.43049100  0.56663482    -0.20300
F927        F  0.74700863  0.45956162  0.61862080    -0.20600
F928        F  0.71947567  0.40656949  0.61743318    -0.23300
C929        C  0.83400738  0.60916089  0.61282849    -0.06100
C930        C  0.81298919  0.60801954  0.64365608    -0.00200
C931        C  0.78929805  0.57906405  0.64893085    -0.08800
C932        C  0.78879511  0.55157941  0.62371051    -0.06100
C933        C  0.81108828  0.55181607  0.59383251    -0.00200
C934        C  0.83375164  0.58136614  0.58777359    -0.08700
C935        C  0.85859712  0.58312496  0.55605285     0.61700
H936        H  0.85142622  0.63180470  0.60895408     0.12400
H937        H  0.77147006  0.52887485  0.62770767     0.12400
C938        C  0.76429609  0.57693585  0.68057819     0.62000
F939        F  0.88019370  0.61300680  0.55713761    -0.23200
F940        F  0.83905089  0.58466949  0.52485333    -0.20500
F941        F  0.88025475  0.55329196  0.55570247    -0.20200
F942        F  0.73945554  0.54997679  0.67671481    -0.20300
F943        F  0.74602495  0.60868112  0.68393202    -0.20600
F944        F  0.78337496  0.57020097  0.71140617    -0.23300
C945        C  0.63692261  0.72689227  0.87781165    -0.06100
C946        C  0.63707681  0.75075196  0.90643751    -0.00200
C947        C  0.66787092  0.77152680  0.91311459    -0.08800
C948        C  0.69659745  0.76927043  0.88912103    -0.06100
C949        C  0.69559150  0.74664026  0.85933828    -0.00200
C950        C  0.66569367  0.72393130  0.85439663    -0.08700
C951        C  0.66383251  0.69610840  0.82502263     0.61700
H952        H  0.61348145  0.71070460  0.87355663     0.12400
H953        H  0.71986456  0.78577070  0.89303444     0.12400
C954        C  0.67026477  0.79635395  0.94487510     0.62000
F955        F  0.63600964  0.67247049  0.83003439    -0.23200
F956        F  0.69486665  0.67639019  0.82455057    -0.20500
F957        F  0.65875874  0.71265673  0.79243976    -0.20200
F958        F  0.66977084  0.77644677  0.97593982    -0.20300
F959        F  0.64195398  0.81990587  0.94462722    -0.20600
F960        F  0.70127864  0.81614028  0.94469605    -0.23300
C961        C  0.63746815  0.60753614  0.73245197    -0.06100
C962        C  0.63729336  0.58195226  0.75978916    -0.00200
C963        C  0.66709426  0.57838509  0.78255167    -0.08800
C964        C  0.69616476  0.60122439  0.77725196    -0.06100
C965        C  0.69555817  0.62808482  0.75107465    -0.00200
C966        C  0.66597870  0.63101444  0.72768796    -0.08700
C967        C  0.66384876  0.65875205  0.69800866     0.61700
H968        H  0.61426866  0.60979954  0.71545068     0.12400
H969        H  0.71900535  0.59944471  0.79477646     0.12400
C970        C  0.66739942  0.55232605  0.81360100     0.62000
F971        F  0.63651382  0.65154227  0.67435419    -0.23200
F972        F  0.69505878  0.65918723  0.67884676    -0.20500
F973        F  0.65782709  0.69218318  0.71226191    -0.20200
F974        F  0.66727904  0.51768465  0.80103190    -0.20300
F975        F  0.63785937  0.55781688  0.83468747    -0.20600
F976        F  0.69715722  0.55656029  0.83483989    -0.23300
C977        C  0.80606096  0.86315696  0.55881578    -0.06100
C978        C  0.83143729  0.89061919  0.55926935    -0.00200
C979        C  0.85326489  0.89512337  0.58976330    -0.08800
C980        C  0.84883211  0.87176309  0.61878109    -0.06100
C981        C  0.82457489  0.84342694  0.61774213    -0.00200
C982        C  0.80214254  0.83929627  0.58755852    -0.08700
C983        C  0.77391378  0.81033521  0.58561433     0.61700
H984        H  0.78957694  0.86018946  0.53530838     0.12400
H985        H  0.86558578  0.87442429  0.64212396     0.12400
C986        C  0.88295551  0.92248343  0.59086622     0.62000
F987        F  0.75128483  0.81525315  0.55684609    -0.23200
F988        F  0.75355623  0.81064596  0.61621428    -0.20500
F989        F  0.78984005  0.77730433  0.58195249    -0.20200
F990        F  0.86917150  0.95662042  0.58916889    -0.20300
F991        F  0.90553896  0.91703554  0.56241979    -0.20600
F992        F  0.90278441  0.91989710  0.62190248    -0.23300
C993        C  0.68897309  0.71318844  0.56533876    -0.06100
C994        C  0.66176381  0.73878535  0.56528225    -0.00200
C995        C  0.65665273  0.76042968  0.59575516    -0.08800
C996        C  0.68023368  0.75652251  0.62472504    -0.06100
C997        C  0.70873398  0.73227570  0.62388396    -0.00200
C998        C  0.71260469  0.70935629  0.59406025    -0.08700
C999        C  0.74159288  0.68113380  0.59182153     0.61700
H1000       H  0.69224543  0.69665051  0.54195211     0.12400
H1001       H  0.67746022  0.77355301  0.64780200     0.12400
C1002       C  0.62774017  0.78868629  0.59716302     0.62000
F1003       F  0.73499642  0.65686520  0.56485595    -0.23200
F1004       F  0.74373112  0.66217708  0.62340729    -0.20500
F1005       F  0.77386004  0.69722999  0.58490681    -0.20200
F1006       F  0.59475033  0.77256269  0.59659760    -0.20300
F1007       F  0.63077935  0.81149784  0.56827111    -0.20600
F1008       F  0.62989126  0.80901188  0.62783288    -0.23300
C1009       C  0.68056499  0.75921737  0.37484060    -0.06100
C1010       C  0.71200964  0.73909522  0.37727779    -0.00200
C1011       C  0.71806850  0.71791336  0.40815546    -0.08800
C1012       C  0.69411586  0.72034689  0.43662463    -0.06100
C1013       C  0.66343447  0.74168973  0.43502487    -0.00200
C1014       C  0.65559628  0.76017830  0.40278715    -0.08700
C1015       C  0.62108689  0.78031157  0.39732737     0.61700
H1016       H  0.67566491  0.77429775  0.35065278     0.12400
H1017       H  0.69934597  0.70526633  0.46074166     0.12400
C1018       C  0.74889579  0.69178954  0.41100751     0.62000
F1019       F  0.61959918  0.79710061  0.36445392    -0.23200
F1020       F  0.61717180  0.80608076  0.42332151    -0.20500
F1021       F  0.59320349  0.75642673  0.39883015    -0.20200
F1022       F  0.78040981  0.71019269  0.41523455    -0.20300
F1023       F  0.75039388  0.67102127  0.38065483    -0.20600
F1024       F  0.74530823  0.66892876  0.43982131    -0.23300
C1025       C  0.86454148  0.86868996  0.37803284    -0.06100
C1026       C  0.83328462  0.84948765  0.37140272    -0.00200
C1027       C  0.80321427  0.85446291  0.39326243    -0.08800
C1028       C  0.80564536  0.87814647  0.42196532    -0.06100
C1029       C  0.83722191  0.89627894  0.42962545    -0.00200
C1030       C  0.86718889  0.89192635  0.40737307    -0.08700
C1031       C  0.90186272  0.91091483  0.41525255     0.61700
H1032       H  0.88709696  0.86451375  0.36069639     0.12400
H1033       H  0.78329770  0.88149528  0.43975128     0.12400
C1034       C  0.76922232  0.83358952  0.38717025     0.62000
F1035       F  0.92871921  0.90005872  0.39261905    -0.23200
F1036       F  0.91260152  0.90378520  0.44983391    -0.20500
F1037       F  0.89718331  0.94730616  0.41111237    -0.20200
F1038       F  0.77525888  0.79803101  0.39489578    -0.20300
F1039       F  0.75831253  0.83697622  0.35207362    -0.20600
F1040       F  0.74192040  0.84540111  0.40871859    -0.23300
C1041       C  0.64151130  0.71643632  0.11350164    -0.06100
C1042       C  0.63567735  0.74760094  0.09354338    -0.00200
C1043       C  0.65875018  0.77713629  0.09718327    -0.08800
C1044       C  0.68778167  0.77415868  0.12053751    -0.06100
C1045       C  0.69289155  0.74344667  0.14130744    -0.00200
C1046       C  0.66969181  0.71398726  0.13792598    -0.08700
C1047       C  0.67378687  0.68084473  0.16104859     0.61700
H1048       H  0.62279592  0.69463845  0.11096949     0.12400
H1049       H  0.70599413  0.79628970  0.12382025     0.12400
C1050       C  0.65151794  0.81216056  0.07802828     0.62000
F1051       F  0.65218295  0.65331097  0.14950891    -0.23200
F1052       F  0.66455920  0.68898963  0.19569847    -0.20500
F1053       F  0.70851527  0.66880309  0.16041568    -0.20200
F1054       F  0.67582305  0.83824740  0.08729574    -0.20300
F1055       F  0.61802553  0.82445100  0.08673870    -0.20600
F1056       F  0.65335936  0.80715104  0.04165004    -0.23300
C1057       C  0.63480134  0.60857921  0.27828839    -0.06100
C1058       C  0.63523715  0.57932302  0.25511128    -0.00200
C1059       C  0.66574594  0.57273388  0.23407385    -0.08800
C1060       C  0.69420377  0.59695373  0.23598053    -0.06100
C1061       C  0.69298401  0.62731675  0.25781862    -0.00200
C1062       C  0.66317412  0.63273797  0.28027850    -0.08700
C1063       C  0.66092309  0.66356391  0.30645074     0.61700
H1064       H  0.61136714  0.61289167  0.29437165     0.12400
H1065       H  0.71728668  0.59302936  0.21932353     0.12400
C1066       C  0.66776385  0.54150594  0.20841795     0.62000
F1067       F  0.63307898  0.65936064  0.33009889    -0.23200
F1068       F  0.65555748  0.69525341  0.28821755    -0.20500
F1069       F  0.69190302  0.66560018  0.32619779    -0.20200
F1070       F  0.63967338  0.54310234  0.18463312    -0.20300
F1071       F  0.66653937  0.50968911  0.22712670    -0.20600
F1072       F  0.69893538  0.54169499  0.18897697    -0.23300
C1073       C  0.97944082  0.57820752  0.21737396    -0.06100
C1074       C  0.97653015  0.55210015  0.24393859    -0.00200
C1075       C  0.95115134  0.55585298  0.27133919    -0.08800
C1076       C  0.92723767  0.58456736  0.26957117    -0.06100
C1077       C  0.92913082  0.61006185  0.24217535    -0.00200
C1078       C  0.95624693  0.60759145  0.21613104    -0.08700
C1079       C  0.96033695  0.63524494  0.18671411     0.61700
H1080       H  0.99941942  0.57476884  0.19697515     0.12400
H1081       H  0.90695698  0.58745221  0.28976856     0.12400
C1082       C  0.95006330  0.53013928  0.30272469     0.62000
F1083       F  0.98446757  0.62441783  0.16121853    -0.23200
F1084       F  0.97231979  0.66697401  0.20106434    -0.20500
F1085       F  0.92820672  0.64105357  0.16979721    -0.20200
F1086       F  0.98399810  0.52509034  0.31607167    -0.20300
F1087       F  0.93642326  0.49762162  0.29217390    -0.20600
F1088       F  0.92914142  0.54308937  0.33004140    -0.23300
C1089       C  0.99131942  0.39082389  0.22867150    -0.06100
C1090       C  0.97503396  0.42412389  0.22287558    -0.00200
C1091       C  0.93856355  0.42484163  0.21278595    -0.08800
C1092       C  0.91871289  0.39343945  0.21600378    -0.06100
C1093       C  0.93412567  0.36047548  0.22534850    -0.00200
C1094       C  0.97190498  0.35859688  0.22778422    -0.08700
C1095       C  0.99232163  0.32354757  0.22707783     0.61700
H1096       H  0.01956964  0.39010600  0.23398384     0.12400
H1097       H  0.89042520  0.39483464  0.21109999     0.12400
C1098       C  0.92009491  0.45777293  0.19748109     0.62000
F1099       F  0.02851575  0.32904837  0.22369537    -0.23200
F1100       F  0.98142059  0.30361790  0.19808177    -0.20500
F1101       F  0.98692618  0.30431979  0.25797807    -0.20200
F1102       F  0.94179949  0.47434703  0.17279013    -0.20300
F1103       F  0.91158323  0.48135724  0.22436094    -0.20600
F1104       F  0.88883474  0.44896723  0.18008476    -0.23300
C1105       C  0.83386769  0.57867404  0.41398507    -0.06100
C1106       C  0.80865883  0.55249287  0.40559691    -0.00200
C1107       C  0.78374877  0.55855179  0.37802314    -0.08800
C1108       C  0.78733615  0.58933997  0.35714649    -0.06100
C1109       C  0.81416707  0.61445815  0.36377279    -0.00200
C1110       C  0.83688837  0.61008599  0.39366999    -0.08700
C1111       C  0.86463205  0.63768516  0.40369197     0.61700
H1112       H  0.85185136  0.57379187  0.43605291     0.12400
H1113       H  0.76936382  0.59379424  0.33495994     0.12400
C1114       C  0.75316686  0.53309394  0.37101092     0.62000
F1115       F  0.88640463  0.62589513  0.43110882    -0.23200
F1116       F  0.84801331  0.66859326  0.41483869    -0.20500
F1117       F  0.88585567  0.64523411  0.37471608    -0.20200
F1118       F  0.73666205  0.52437039  0.40274743    -0.20300
F1119       F  0.76560701  0.50235134  0.35506159    -0.20600
F1120       F  0.72787930  0.54823390  0.34874057    -0.23300
C1121       C  0.83966206  0.42570592  0.37199954    -0.06100
C1122       C  0.82073356  0.42272405  0.40409083    -0.00200
C1123       C  0.80534168  0.38938261  0.41340969    -0.08800
C1124       C  0.80699802  0.36128253  0.38862228    -0.06100
C1125       C  0.82432324  0.36504180  0.35570865    -0.00200
C1126       C  0.84236837  0.39734636  0.34784268    -0.08700
C1127       C  0.86511055  0.40203999  0.31466648     0.61700
H1128       H  0.85224199  0.45091830  0.36568066     0.12400
H1129       H  0.79419110  0.33609831  0.39457312     0.12400
C1130       C  0.78690731  0.38323480  0.44884547     0.62000
F1131       F  0.88561279  0.43265055  0.31631345    -0.23200
F1132       F  0.88794797  0.37333759  0.31112929    -0.20500
F1133       F  0.84376414  0.40466362  0.28474397    -0.20200
F1134       F  0.75991169  0.40785919  0.45325761    -0.20300
F1135       F  0.81126066  0.38642881  0.47629228    -0.20600
F1136       F  0.77218998  0.34945453  0.45114658    -0.23300
C1137       C  0.47375461  0.63968758  0.77829050    -0.06100
C1138       C  0.44709075  0.62843668  0.75467854    -0.00200
C1139       C  0.45069265  0.59489546  0.73748982    -0.08800
C1140       C  0.48112132  0.57405561  0.74446212    -0.06100
C1141       C  0.50833676  0.58609985  0.76693614    -0.00200
C1142       C  0.50443694  0.61926691  0.78469039    -0.08700
C1143       C  0.53228318  0.63330640  0.81046823     0.61700
H1144       H  0.47056324  0.66515324  0.79150913     0.12400
H1145       H  0.48469921  0.54873949  0.73108509     0.12400
C1146       C  0.42421207  0.58226828  0.70986447     0.62000
F1147       F  0.51940214  0.66134595  0.83061845    -0.23200
F1148       F  0.56140985  0.64555848  0.79176254    -0.20500
F1149       F  0.54272988  0.60651867  0.83371921    -0.20200
F1150       F  0.41998841  0.60858542  0.68432103    -0.20300
F1151       F  0.39194602  0.57491909  0.72568414    -0.20600
F1152       F  0.43560039  0.55153416  0.69297432    -0.23300
C1153       C  0.44542735  0.74248055  0.89060592    -0.06100
C1154       C  0.44894192  0.75389211  0.85500813    -0.00200
C1155       C  0.48189928  0.76901334  0.84400239    -0.08800
C1156       C  0.51000707  0.77044459  0.86861254    -0.06100
C1157       C  0.50709954  0.75750456  0.90365833    -0.00200
C1158       C  0.47375685  0.74404791  0.91527434    -0.08700
C1159       C  0.46783272  0.73046309  0.95299320     0.61700
H1160       H  0.42024773  0.73139222  0.89889634     0.12400
H1161       H  0.53518376  0.78144893  0.86022090     0.12400
C1162       C  0.48816886  0.78406750  0.80675528     0.62000
F1163       F  0.43391297  0.71714058  0.95767796    -0.23200
F1164       F  0.47221189  0.75807897  0.97694642    -0.20500
F1165       F  0.49159555  0.70329477  0.96064285    -0.20200
F1166       F  0.46176660  0.80825355  0.79821156    -0.20300
F1167       F  0.48869108  0.75672923  0.78208103    -0.20600
F1168       F  0.52025923  0.80187620  0.80415195    -0.23300
C1169       C  0.18686594  0.60874820  0.78778137    -0.06100
C1170       C  0.21323245  0.60817531  0.76142930    -0.00200
C1171       C  0.21607929  0.57820434  0.73858128    -0.08800
C1172       C  0.19276924  0.54943452  0.74366486    -0.06100
C1173       C  0.16694647  0.54954192  0.77053002    -0.00200
C1174       C  0.16380956  0.57962594  0.79312510    -0.08700
C1175       C  0.13783203  0.58025384  0.82394662     0.61700
H1176       H  0.18529176  0.63184358  0.80499142     0.12400
H1177       H  0.19476986  0.52617297  0.72671852     0.12400
C1178       C  0.24300580  0.57659543  0.70845032     0.62000
F1179       F  0.14068453  0.61127197  0.84370561    -0.23200
F1180       F  0.14439717  0.55161222  0.84637437    -0.20500
F1181       F  0.10346636  0.57823235  0.81133319    -0.20200
F1182       F  0.27690655  0.57278327  0.72214808    -0.20300
F1183       F  0.24123992  0.60744429  0.68826289    -0.20600
F1184       F  0.23675331  0.54809222  0.68591923    -0.23300
C1185       C  0.29595617  0.58233477  0.58310781    -0.06100
C1186       C  0.32077232  0.55510421  0.58969077    -0.00200
C1187       C  0.34683931  0.55960298  0.61642113    -0.08800
C1188       C  0.34406567  0.58897656  0.63899816    -0.06100
C1189       C  0.31859786  0.61574058  0.63361626    -0.00200
C1190       C  0.29469835  0.61320151  0.60438879    -0.08700
C1191       C  0.26709134  0.64180750  0.59649458     0.61700
H1192       H  0.27672071  0.57858545  0.56194332     0.12400
H1193       H  0.36254338  0.59134694  0.66089595     0.12400
C1194       C  0.37837026  0.53483206  0.62190044     0.62000
F1195       F  0.24408376  0.63165597  0.56953928    -0.23200
F1196       F  0.28373899  0.67290382  0.58578929    -0.20500
F1197       F  0.24709555  0.64845803  0.62656100    -0.20200
F1198       F  0.38372885  0.51189443  0.59365975    -0.20300
F1199       F  0.37346672  0.51507190  0.65267481    -0.20600
F1200       F  0.40894569  0.55495664  0.62538235    -0.23300
C1201       C  0.32795795  0.89807382  0.58943408    -0.06100
C1202       C  0.29838081  0.89589368  0.56676379    -0.00200
C1203       C  0.26968655  0.87325934  0.57569350    -0.08800
C1204       C  0.27279219  0.85125673  0.60591376    -0.06100
C1205       C  0.30307339  0.85218389  0.62768613    -0.00200
C1206       C  0.33084625  0.87647126  0.62005012    -0.08700
C1207       C  0.36389558  0.87849013  0.64328733     0.61700
H1208       H  0.34935856  0.91596208  0.58222681     0.12400
H1209       H  0.25180721  0.83261019  0.61246420     0.12400
C1210       C  0.23585466  0.87269120  0.55363984     0.62000
F1211       F  0.38915604  0.90117976  0.62902228    -0.23200
F1212       F  0.37904356  0.84499376  0.64671811    -0.20500
F1213       F  0.35495032  0.89108800  0.67665087    -0.20200
F1214       F  0.24242389  0.85765148  0.52074901    -0.20300
F1215       F  0.22341987  0.90715926  0.54894192    -0.20600
F1216       F  0.20939115  0.85309589  0.57009183    -0.23300
C1217       C  0.47593559  0.72311330  0.58568779    -0.06100
C1218       C  0.47230124  0.75201274  0.56206652    -0.00200
C1219       C  0.44567893  0.77809224  0.56817176    -0.08800
C1220       C  0.42276113  0.77366559  0.59730786    -0.06100
C1221       C  0.42599179  0.74450995  0.62052175    -0.00200
C1222       C  0.45289080  0.71870232  0.61486467    -0.08700
C1223       C  0.45578968  0.68569672  0.63832046     0.61700
H1224       H  0.49613406  0.70327851  0.58027319     0.12400
H1225       H  0.40198785  0.79302454  0.60222989     0.12400
C1226       C  0.44196076  0.81095190  0.54460805     0.62000
F1227       F  0.48140537  0.66223786  0.62615711    -0.23200
F1228       F  0.42357995  0.66799344  0.63862337    -0.20500
F1229       F  0.46474678  0.69530299  0.67270875    -0.20200
F1230       F  0.42890883  0.80145816  0.51152617    -0.20300
F1231       F  0.47469988  0.82713327  0.54061287    -0.20600
F1232       F  0.41896084  0.83578784  0.55913985    -0.23300
C1233       C  0.44840138  0.38074329  0.74251455    -0.06100
C1234       C  0.44729122  0.34891814  0.76239491    -0.00200
C1235       C  0.47345263  0.34252796  0.78893194    -0.08800
C1236       C  0.50077460  0.36741008  0.79325480    -0.06100
C1237       C  0.50350971  0.39767000  0.77151306    -0.00200
C1238       C  0.47636730  0.40540335  0.74640165    -0.08700
C1239       C  0.47755144  0.43859721  0.72301538     0.61700
H1240       H  0.42780111  0.38554829  0.72307464     0.12400
H1241       H  0.52132979  0.36265510  0.81292068     0.12400
C1242       C  0.47321402  0.30945148  0.81242170     0.62000
F1243       F  0.44950528  0.43990942  0.69927881    -0.23200
F1244       F  0.50866702  0.43908773  0.70355397    -0.20500
F1245       F  0.47567662  0.46883720  0.74393568    -0.20200
F1246       F  0.48170994  0.27988211  0.79224363    -0.20300
F1247       F  0.44007972  0.30506909  0.82748952    -0.20600
F1248       F  0.49772328  0.31170991  0.83990944    -0.23300
C1249       C  0.50560474  0.19764978  0.87866551    -0.06100
C1250       C  0.50600722  0.22105159  0.90779991    -0.00200
C1251       C  0.47630971  0.24343462  0.91414646    -0.08800
C1252       C  0.44812251  0.24300099  0.88946636    -0.06100
C1253       C  0.44884119  0.22109546  0.85915184    -0.00200
C1254       C  0.47732957  0.19700134  0.85428509    -0.08700
C1255       C  0.47830895  0.17091989  0.82341300     0.61700
H1256       H  0.52832882  0.18042141  0.87450254     0.12400
H1257       H  0.42559463  0.26059367  0.89311462     0.12400
C1258       C  0.47466711  0.26843298  0.94593627     0.62000
F1259       F  0.50348839  0.14448416  0.82879669    -0.23200
F1260       F  0.48666093  0.18899144  0.79238794    -0.20500
F1261       F  0.44571941  0.15437926  0.81948287    -0.20200
F1262       F  0.50440492  0.29004908  0.94670607    -0.20300
F1263       F  0.47300467  0.24867828  0.97708355    -0.20600
F1264       F  0.44507164  0.29037384  0.94466457    -0.23300
C1265       C  0.28978669  0.36977004  0.61784082    -0.06100
C1266       C  0.31805714  0.36672008  0.64223199    -0.00200
C1267       C  0.34549776  0.39251602  0.64183365    -0.08800
C1268       C  0.34300253  0.42137614  0.61803393    -0.06100
C1269       C  0.31435099  0.42507278  0.59449053    -0.00200
C1270       C  0.28723363  0.39896707  0.59409363    -0.08700
C1271       C  0.25511824  0.40292022  0.56989079     0.61700
H1272       H  0.26921494  0.34958983  0.61821765     0.12400
H1273       H  0.36323751  0.44191311  0.61815621     0.12400
C1274       C  0.37703941  0.39045515  0.66688786     0.62000
F1275       F  0.26540718  0.39963390  0.53473001    -0.23200
F1276       F  0.23963475  0.43605283  0.57484906    -0.20500
F1277       F  0.22972805  0.37719905  0.57682856    -0.20200
F1278       F  0.40427301  0.41230975  0.65540797    -0.20300
F1279       F  0.39027808  0.35604084  0.66872563    -0.20600
F1280       F  0.36666238  0.40131694  0.70045057    -0.23300
C1281       C  0.18136032  0.36248116  0.75103866    -0.06100
C1282       C  0.21182538  0.36151430  0.77269363    -0.00200
C1283       C  0.21701232  0.38840800  0.79863982    -0.08800
C1284       C  0.19330938  0.41731076  0.79951384    -0.06100
C1285       C  0.16399423  0.41947400  0.77644259    -0.00200
C1286       C  0.15691074  0.39092729  0.75272870    -0.08700
C1287       C  0.12443521  0.39083010  0.72866598     0.61700
H1288       H  0.17733233  0.34108951  0.73211468     0.12400
H1289       H  0.19785386  0.43894539  0.81805765     0.12400
C1290       C  0.24663342  0.38614488  0.82611068     0.62000
F1291       F  0.12384185  0.36141354  0.70644040    -0.23200
F1292       F  0.12410465  0.42118444  0.70757574    -0.20500
F1293       F  0.09404837  0.38984769  0.74920944    -0.20200
F1294       F  0.27902874  0.39262572  0.81021322    -0.20300
F1295       F  0.24687168  0.35255610  0.84142798    -0.20600
F1296       F  0.24218429  0.41078141  0.85314509    -0.23300
C1297       C  0.28233302  0.11085707  0.56619480    -0.06100
C1298       C  0.30797908  0.08378905  0.56406592    -0.00200
C1299       C  0.33318395  0.07954239  0.59180200    -0.08800
C1300       C  0.33175649  0.10293527  0.62097695    -0.06100
C1301       C  0.30690258  0.13085169  0.62247973    -0.00200
C1302       C  0.28130811  0.13469777  0.59494747    -0.08700
C1303       C  0.25302482  0.16365452  0.59564035     0.61700
H1304       H  0.26346430  0.11368477  0.54453935     0.12400
H1305       H  0.35102740  0.10047337  0.64233403     0.12400
C1306       C  0.36254977  0.05182821  0.58977413     0.62000
F1307       F  0.22713377  0.15811248  0.56996845    -0.23200
F1308       F  0.26837680  0.19652757  0.58913906    -0.20500
F1309       F  0.23652029  0.16410712  0.62848859    -0.20200
F1310       F  0.38073857  0.05550355  0.55801186    -0.20300
F1311       F  0.34816317  0.01795578  0.59179649    -0.20600
F1312       F  0.38680904  0.05546109  0.61732158    -0.23300
C1313       C  0.28197351  0.12014745  0.39038416    -0.06100
C1314       C  0.31438982  0.12558942  0.37324793    -0.00200
C1315       C  0.34529093  0.10796770  0.38557464    -0.08800
C1316       C  0.34277891  0.08605858  0.41600436    -0.06100
C1317       C  0.31066142  0.08261499  0.43450241    -0.00200
C1318       C  0.27975372  0.09999814  0.42180902     0.04100
C1319       C  0.24504624  0.09864295  0.44220562     0.61700
H1320       H  0.25854375  0.13258664  0.37938667     0.12400
H1321       H  0.36607194  0.07249876  0.42632083     0.12400
C1322       C  0.38053227  0.11273878  0.36673035     0.62000
F1323       F  0.21740430  0.11393021  0.42309759    -0.23200
F1324       F  0.24874107  0.11719468  0.47377572    -0.20500
F1325       F  0.23605669  0.06363291  0.44965111    -0.20200
F1326       F  0.38980070  0.14840916  0.36630118    -0.20300
F1327       F  0.37760143  0.10078015  0.33206822    -0.20600
F1328       F  0.40754662  0.09384468  0.38332223    -0.23300
C1329       C  0.46429737  0.23448107  0.62600548    -0.06100
C1330       C  0.43051725  0.25035688  0.62260991    -0.00200
C1331       C  0.42203152  0.26898659  0.59056394    -0.08800
C1332       C  0.44702950  0.26934718  0.56291458    -0.06100
C1333       C  0.47965957  0.25127513  0.56536364    -0.00200
C1334       C  0.48895854  0.23415755  0.59782785    -0.08700
C1335       C  0.52367401  0.21396850  0.60234815     0.61700
H1336       H  0.47077410  0.22085659  0.65062727     0.12400
H1337       H  0.44053510  0.28279914  0.53815216     0.12400
C1338       C  0.38687139  0.28826904  0.58471969     0.62000
F1339       F  0.52629311  0.19776980  0.63545792    -0.23200
F1340       F  0.55196456  0.23721536  0.59903763    -0.20500
F1341       F  0.52608916  0.18759443  0.57676615    -0.20200
F1342       F  0.37997745  0.31053428  0.61310095    -0.20300
F1343       F  0.35974488  0.26367784  0.58110986    -0.20600
F1344       F  0.38710126  0.30917803  0.55422114    -0.23300
C1345       C  0.48603771  0.25841529  0.40671467    -0.06100
C1346       C  0.47654643  0.23766715  0.43642040    -0.00200
C1347       C  0.44531005  0.21646264  0.43501691    -0.08800
C1348       C  0.42416021  0.21789581  0.40430378    -0.06100
C1349       C  0.43307619  0.23915435  0.37492303    -0.00200
C1350       C  0.46450562  0.25998665  0.37596515    -0.08700
C1351       C  0.47408438  0.28549270  0.34598763     0.61700
H1352       H  0.50981547  0.27455964  0.40835680     0.12400
H1353       H  0.39964470  0.20290396  0.40340941     0.12400
C1354       C  0.43357027  0.19254030  0.46562906     0.62000
F1355       F  0.50228944  0.30736874  0.35505754    -0.23200
F1356       F  0.44535095  0.30711609  0.33819628    -0.20500
F1357       F  0.48345208  0.26649353  0.31595541    -0.20200
F1358       F  0.41931830  0.21311556  0.49255168    -0.20300
F1359       F  0.46207400  0.17313198  0.47866034    -0.20600
F1360       F  0.40783781  0.16839893  0.45495673    -0.23300
C1361       C  0.50920052  0.61377125  0.22565678    -0.06100
C1362       C  0.50598040  0.57974698  0.24125115    -0.00200
C1363       C  0.47188780  0.56811488  0.25261224    -0.08800
C1364       C  0.44355816  0.59277526  0.25180847    -0.06100
C1365       C  0.44774459  0.62780614  0.23895914    -0.00200
C1366       C  0.48052309  0.63756360  0.22311624    -0.08700
C1367       C  0.48506041  0.67177893  0.20159780     0.61700
H1368       H  0.53471656  0.62180212  0.21514675     0.12400
H1369       H  0.41786154  0.58495855  0.26179724     0.12400
C1370       C  0.46507536  0.53040695  0.26602375     0.62000
F1371       F  0.51590494  0.67129628  0.18162580    -0.23200
F1372       F  0.48669903  0.70102286  0.22388565    -0.20500
F1373       F  0.45690591  0.67560342  0.17815145    -0.20200
F1374       F  0.48616326  0.52335317  0.29545003    -0.20300
F1375       F  0.47233407  0.50612273  0.23935580    -0.20600
F1376       F  0.43005650  0.52539402  0.27580121    -0.23300
C1377       C  0.47849899  0.73591424  0.08410645    -0.06100
C1378       C  0.50691550  0.75769039  0.09448073    -0.00200
C1379       C  0.50336069  0.78001334  0.12469815    -0.08800
C1380       C  0.47242146  0.77739525  0.14524373    -0.06100
C1381       C  0.44459008  0.75429492  0.13604601    -0.00200
C1382       C  0.44694950  0.73409107  0.10409617    -0.08700
C1383       C  0.41690407  0.71035712  0.09114745     0.61700
H1384       H  0.48154833  0.71978534  0.06041744     0.12400
H1385       H  0.46982743  0.79336173  0.16911212     0.12400
C1386       C  0.53140250  0.80741611  0.13473662     0.62000
F1387       F  0.42615650  0.69148054  0.06088291    -0.23200
F1388       F  0.38771664  0.73116446  0.08270797    -0.20500
F1389       F  0.40785485  0.68594640  0.11728343    -0.20200
F1390       F  0.54049105  0.82736837  0.10505528    -0.20300
F1391       F  0.56126287  0.79062470  0.14820975    -0.20600
F1392       F  0.51923976  0.83075909  0.16046356    -0.23300
C1393       C  0.45747445  0.76191428  0.37417998    -0.06100
C1394       C  0.43323765  0.73351299  0.37300195    -0.00200
C1395       C  0.43144248  0.70899661  0.40181817    -0.08800
C1396       C  0.45379371  0.71431549  0.43118609    -0.06100
C1397       C  0.47653018  0.74377145  0.43310144    -0.00200
C1398       C  0.47820697  0.76841305  0.40459277    -0.08700
C1399       C  0.49942670  0.80270556  0.40745071     0.61700
H1400       H  0.45840141  0.78031994  0.35192227     0.12400
H1401       H  0.45264089  0.69620409  0.45373378     0.12400
C1402       C  0.40556379  0.67795247  0.40242728     0.62000
F1403       F  0.49336085  0.82522666  0.37873102    -0.23200
F1404       F  0.53520474  0.79501830  0.40871151    -0.20500
F1405       F  0.48996897  0.82072971  0.43809928    -0.20200
F1406       F  0.41443767  0.65311053  0.42839716    -0.20300
F1407       F  0.40564935  0.66070333  0.36998228    -0.20600
F1408       F  0.37177889  0.69040887  0.40956398    -0.23300
C1409       C  0.29271637  0.87685742  0.37595526    -0.06100
C1410       C  0.31281631  0.84527492  0.37861911    -0.00200
C1411       C  0.33203232  0.83815059  0.41050859    -0.08800
C1412       C  0.32872859  0.86191529  0.43913290    -0.06100
C1413       C  0.30767230  0.89277909  0.43700748    -0.00200
C1414       C  0.28965619  0.90083411  0.40470492    -0.08700
C1415       C  0.26620951  0.93366133  0.40091755     0.61700
H1416       H  0.27866099  0.88221042  0.35129617     0.12400
H1417       H  0.34252442  0.85625310  0.46388690     0.12400
C1418       C  0.35607790  0.80574862  0.41488287     0.62000
F1419       F  0.24802520  0.93408080  0.36880883    -0.23200
F1420       F  0.28677194  0.96417286  0.40243644    -0.20500
F1421       F  0.24142148  0.93427294  0.42802639    -0.20200
F1422       F  0.37688014  0.80131832  0.38500924    -0.20300
F1423       F  0.33567281  0.77554481  0.42018652    -0.20600
F1424       F  0.37880060  0.80928975  0.44371032    -0.23300
C1425       C  0.19131410  0.55494285  0.26478254    -0.06100
C1426       C  0.16373189  0.55404921  0.23961334    -0.00200
C1427       C  0.15819382  0.58388466  0.21688277    -0.08800
C1428       C  0.18189542  0.61287762  0.21913883    -0.06100
C1429       C  0.21092195  0.61266270  0.24265954    -0.00200
C1430       C  0.21489178  0.58386230  0.26700973    -0.08700
C1431       C  0.24371430  0.58341930  0.29540889     0.61700
H1432       H  0.19482360  0.53215491  0.28230556     0.12400
H1433       H  0.17852240  0.63554524  0.20173313     0.12400
C1434       C  0.12851367  0.58467601  0.18938971     0.62000
F1435       F  0.23775336  0.55724492  0.32082718    -0.23200
F1436       F  0.24474611  0.61591730  0.31276469    -0.20500
F1437       F  0.27620056  0.57667717  0.27981233    -0.20200
F1438       F  0.09604985  0.58626509  0.20639518    -0.20300
F1439       F  0.12991046  0.55435618  0.16851391    -0.20600
F1440       F  0.13105088  0.61402631  0.16700103    -0.23300
C1441       C  0.18636869  0.36989968  0.26399056    -0.06100
C1442       C  0.20900406  0.36290250  0.23521892    -0.00200
C1443       C  0.20845803  0.38576209  0.20502094    -0.08800
C1444       C  0.18640736  0.41609671  0.20551082    -0.06100
C1445       C  0.16456871  0.42357854  0.23468051    -0.00200
C1446       C  0.16430989  0.40027683  0.26441697    -0.08700
C1447       C  0.14158573  0.40815758  0.29677473     0.61700
H1448       H  0.18683549  0.35186763  0.28659775     0.12400
H1449       H  0.18608675  0.43439133  0.18309480     0.12400
C1450       C  0.23012603  0.37752505  0.17200205     0.62000
F1451       F  0.14920914  0.38533396  0.32481016    -0.23200
F1452       F  0.10614214  0.40434093  0.28790644    -0.20500
F1453       F  0.14754466  0.44265432  0.30839641    -0.20200
F1454       F  0.22187455  0.34365690  0.15998683    -0.20300
F1455       F  0.26590681  0.37924028  0.17979327    -0.20600
F1456       F  0.22328471  0.40147453  0.14464077    -0.23300
C1457       C  0.34061870  0.55188071  0.37768634    -0.06100
C1458       C  0.31446773  0.55205982  0.40414375    -0.00200
C1459       C  0.29259187  0.58250509  0.40845541    -0.08800
C1460       C  0.29724136  0.61154421  0.38505058    -0.06100
C1461       C  0.32235134  0.61057034  0.35742887    -0.00200
C1462       C  0.34513414  0.58068992  0.35424985    -0.08700
C1463       C  0.37336412  0.57812507  0.32566211     0.61700
H1464       H  0.35710158  0.52833368  0.37488066     0.12400
H1465       H  0.28023364  0.63476153  0.38723275     0.12400
C1466       C  0.26325199  0.58360185  0.43610888     0.62000
F1467       F  0.39860320  0.55263377  0.33428084    -0.23200
F1468       F  0.39086521  0.61029168  0.32162112    -0.20500
F1469       F  0.35756600  0.56872766  0.29374855    -0.20200
F1470       F  0.27772878  0.58259974  0.46998689    -0.20300
F1471       F  0.24091645  0.55466691  0.43157794    -0.20600
F1472       F  0.24300135  0.61435979  0.43329926    -0.23300
C1473       C  0.33788191  0.36810496  0.38604644    -0.06100
C1474       C  0.31182720  0.36364439  0.35976202    -0.00200
C1475       C  0.28284378  0.38765945  0.35755508    -0.08800
C1476       C  0.28205981  0.41689358  0.38070334    -0.06100
C1477       C  0.30884603  0.42223045  0.40602519    -0.00200
C1478       C  0.33700357  0.39734623  0.40937526    -0.08700
C1479       C  0.36678468  0.40256788  0.43616862     0.61700
H1480       H  0.35953982  0.34908620  0.38732707     0.12400
H1481       H  0.26083809  0.43636395  0.37872324     0.12400
C1482       C  0.25280131  0.38237492  0.33108784     0.62000
F1483       F  0.39237000  0.37614994  0.43359348    -0.23200
F1484       F  0.35330924  0.40162032  0.47036316    -0.20500
F1485       F  0.38302880  0.43515346  0.43028633    -0.20200
F1486       F  0.24008421  0.34781496  0.33357939    -0.20300
F1487       F  0.26493909  0.38867799  0.29698018    -0.20600
F1488       F  0.22479857  0.40545100  0.33737247    -0.23300
C1489       C  0.16429773  0.24049871  0.41682168    -0.06100
C1490       C  0.13440054  0.25886725  0.40380436    -0.00200
C1491       C  0.13694054  0.27760049  0.37091198    -0.08800
C1492       C  0.16846414  0.27496195  0.35120158    -0.06100
C1493       C  0.19748142  0.25446680  0.36291091    -0.00200
C1494       C  0.19589747  0.23786284  0.39699360    -0.08700
C1495       C  0.22639169  0.21579485  0.41168295     0.61700
H1496       H  0.16224216  0.22694765  0.44225593     0.12400
H1497       H  0.17032236  0.28831968  0.32563341     0.12400
C1498       C  0.10686575  0.30045248  0.35621398     0.62000
F1499       F  0.21766812  0.19866203  0.44321707    -0.23200
F1500       F  0.25534834  0.23745762  0.41828491    -0.20500
F1501       F  0.23543206  0.19008772  0.38717469    -0.20200
F1502       F  0.09383548  0.32256853  0.38257195    -0.20300
F1503       F  0.07997763  0.27890482  0.34341912    -0.20600
F1504       F  0.11801879  0.32184407  0.32831671    -0.23300
C1505       C  0.95345516  0.21926244  0.38212840    -0.06100
C1506       C  0.94433160  0.24982540  0.36246650    -0.00200
C1507       C  0.96346680  0.28182381  0.36744848    -0.08800
C1508       C  0.99408418  0.28109299  0.38891229    -0.06100
C1509       C  0.00458076  0.24992295  0.40687133    -0.00200
C1510       C  0.98343448  0.21878597  0.40460756    -0.08700
C1511       C  0.99316763  0.18504906  0.42488728     0.61700
H1512       H  0.93739187  0.19551625  0.37901223     0.12400
H1513       H  0.01010984  0.30490324  0.39189964     0.12400
C1514       C  0.95049661  0.31669946  0.35139614     0.62000
F1515       F  0.96937779  0.15765622  0.41836764    -0.23200
F1516       F  0.99310664  0.19179287  0.46107764    -0.20500
F1517       F  0.02659023  0.17367656  0.41482778    -0.20200
F1518       F  0.95042890  0.31465631  0.31475024    -0.20300
F1519       F  0.91628721  0.32336697  0.36288535    -0.20600
F1520       F  0.97164587  0.34520711  0.36130941    -0.23300
C1521       C  0.16445580  0.07145915  0.26166349    -0.06100
C1522       C  0.13727747  0.07955279  0.23723647    -0.00200
C1523       C  0.14181536  0.10863380  0.21336738    -0.08800
C1524       C  0.17163535  0.13084165  0.21734590    -0.06100
C1525       C  0.19797827  0.12399829  0.24301978    -0.00200
C1526       C  0.19515229  0.09290301  0.26468731    -0.08700
C1527       C  0.22392410  0.08250153  0.29122067     0.61700
H1528       H  0.16103267  0.04857480  0.27901652     0.12400
H1529       H  0.17452721  0.15401640  0.20023277     0.12400
C1530       C  0.11574171  0.11618566  0.18330895     0.62000
F1531       F  0.21335232  0.05465388  0.31308144    -0.23200
F1532       F  0.23232849  0.11118342  0.31274982    -0.20500
F1533       F  0.25387278  0.07162905  0.27299087    -0.20200
F1534       F  0.13092833  0.13728752  0.15710603    -0.20300
F1535       F  0.08634970  0.13383167  0.19644692    -0.20600
F1536       F  0.10515896  0.08462005  0.16745523    -0.23300
C1537       C  0.94617990  0.09445631  0.23334443    -0.06100
C1538       C  0.94874382  0.12583988  0.25350713    -0.00200
C1539       C  0.98080820  0.13347394  0.27198579    -0.08800
C1540       C  0.00961606  0.11015528  0.26813064    -0.06100
C1541       C  0.00769833  0.07962039  0.24673064    -0.00200
C1542       C  0.97524443  0.07110395  0.22938922    -0.08700
C1543       C  0.97134800  0.03842295  0.20589922     0.61700
H1544       H  0.92143133  0.08898481  0.21966563     0.12400
H1545       H  0.03441896  0.11605492  0.28154395     0.12400
C1546       C  0.98511033  0.16595256  0.29580035     0.62000
F1547       F  0.93925166  0.03823766  0.18780187    -0.23200
F1548       F  0.97287610  0.00797069  0.22663340    -0.20500
F1549       F  0.99821756  0.03757462  0.18090355    -0.20200
F1550       F  0.95592523  0.16933413  0.31764833    -0.20300
F1551       F  0.98867239  0.19638680  0.27519006    -0.20600
F1552       F  0.01483665  0.16324520  0.31746355    -0.23300
C1553       C  0.00257120  0.69369050  0.37635723    -0.06100
C1554       C  0.00609157  0.72007006  0.40254981    -0.00200
C1555       C  0.97911952  0.74608024  0.40666313    -0.08800
C1556       C  0.95009042  0.74564228  0.38303524    -0.06100
C1557       C  0.94743233  0.72023824  0.35577514    -0.00200
C1558       C  0.97350121  0.69309199  0.35286611    -0.08700
C1559       C  0.97084552  0.66352023  0.32536247     0.61700
H1560       H  0.02322733  0.67371145  0.37409809     0.12400
H1561       H  0.92952430  0.76575962  0.38511142     0.12400
C1562       C  0.98128798  0.77460801  0.43519906     0.62000
F1563       F  0.99459106  0.63611237  0.33241670    -0.23200
F1564       F  0.97820157  0.67703255  0.29189915    -0.20500
F1565       F  0.93711940  0.64907974  0.32538346    -0.20200
F1566       F  0.01325803  0.79258228  0.43280937    -0.20300
F1567       F  0.97854151  0.75881183  0.46839315    -0.20600
F1568       F  0.95423055  0.79946640  0.43193254    -0.23300
C1569       C  0.16349489  0.74112720  0.41184369    -0.06100
C1570       C  0.13592909  0.71754031  0.40282992    -0.00200
C1571       C  0.14026047  0.69438243  0.37323511    -0.08800
C1572       C  0.17116942  0.69718296  0.35255058    -0.06100
C1573       C  0.19793866  0.72191820  0.36047034    -0.00200
C1574       C  0.19445753  0.74401771  0.39090346    -0.08700
C1575       C  0.22237800  0.77176145  0.40015251     0.61700
H1576       H  0.15991261  0.75838076  0.43464359     0.12400
H1577       H  0.17422643  0.68053469  0.32919722     0.12400
C1578       C  0.11210820  0.66745332  0.36235774     0.62000
F1579       F  0.21183648  0.79326039  0.42810386    -0.23200
F1580       F  0.22860613  0.79353893  0.37097277    -0.20500
F1581       F  0.25360236  0.75495964  0.41005192    -0.20200
F1582       F  0.08541569  0.68474828  0.34371224    -0.20300
F1583       F  0.09797679  0.65071442  0.39201391    -0.20600
F1584       F  0.12603570  0.64115662  0.34064779    -0.23300
C1585       C  0.00522219  0.86265114  0.22094963    -0.06100
C1586       C  0.00581875  0.89122880  0.24497237    -0.00200
C1587       C  0.97617295  0.89739083  0.26724051    -0.08800
C1588       C  0.94687412  0.87420234  0.26484015    -0.06100
C1589       C  0.94692624  0.84466907  0.24189015    -0.00200
C1590       C  0.97628280  0.83916516  0.21885780    -0.08700
C1591       C  0.97764554  0.80861612  0.19230390     0.61700
H1592       H  0.02827595  0.85824671  0.20433491     0.12400
H1593       H  0.92425748  0.87800966  0.28216104     0.12400
C1594       C  0.97638870  0.92670114  0.29504274     0.62000
F1595       F  0.00347938  0.81403681  0.16670646    -0.23200
F1596       F  0.94549726  0.80555925  0.17477659    -0.20500
F1597       F  0.98529490  0.77702328  0.20992904    -0.20200
F1598       F  0.97831127  0.95965393  0.27864759    -0.20300
F1599       F  0.00534322  0.92235139  0.31739828    -0.20600
F1600       F  0.94601475  0.92624093  0.31569085    -0.23300
C1601       C  0.16210452  0.89793017  0.23332790    -0.06100
C1602       C  0.13483969  0.88996867  0.25746591    -0.00200
C1603       C  0.13928937  0.86179105  0.28246422    -0.08800
C1604       C  0.17075441  0.84179510  0.28152418    -0.06100
C1605       C  0.19731964  0.84887468  0.25645940    -0.00200
C1606       C  0.19325435  0.87735090  0.23191789    -0.08700
C1607       C  0.22067488  0.88470282  0.20320257     0.61700
H1608       H  0.15811826  0.91955201  0.21449610     0.12400
H1609       H  0.17445199  0.81958135  0.29975517     0.12400
C1610       C  0.11107318  0.85228220  0.30975563     0.62000
F1611       F  0.20928562  0.91065846  0.17942420    -0.23200
F1612       F  0.22723568  0.85388478  0.18408154    -0.20500
F1613       F  0.25189745  0.89637978  0.21867709    -0.20200
F1614       F  0.08321032  0.83496628  0.29313878    -0.20300
F1615       F  0.09863447  0.88281299  0.32618096    -0.20600
F1616       F  0.12432268  0.82985485  0.33605615    -0.23300
C1617       C  0.13210065  0.69781304  0.62550289    -0.06100
C1618       C  0.13262339  0.71782735  0.59381128    -0.00200
C1619       C  0.16324895  0.73828549  0.58545489    -0.08800
C1620       C  0.19164473  0.73878417  0.60995918    -0.06100
C1621       C  0.19046471  0.71992663  0.64235668    -0.00200
C1622       C  0.16039719  0.69831247  0.64998236    -0.08700
C1623       C  0.15771791  0.67562885  0.68355072     0.61700
H1624       H  0.10871580  0.68208756  0.63137550     0.12400
H1625       H  0.21484172  0.75487963  0.60438051     0.12400
C1626       C  0.16580624  0.76059529  0.55166499     0.62000
F1627       F  0.12991686  0.65152937  0.68173116    -0.23200
F1628       F  0.15209123  0.69727951  0.71275101    -0.20500
F1629       F  0.18857491  0.65626370  0.68836719    -0.20200
F1630       F  0.13705974  0.78350341  0.54925821    -0.20300
F1631       F  0.16651341  0.73848560  0.52226069    -0.20600
F1632       F  0.19633918  0.78109825  0.55097699    -0.23300
C1633       C  0.95181668  0.75121075  0.61428361    -0.06100
C1634       C  0.94277923  0.72099869  0.63450846    -0.00200
C1635       C  0.96215553  0.68900426  0.63003852    -0.08800
C1636       C  0.99197707  0.68905696  0.60748529    -0.06100
C1637       C  0.00262249  0.72007839  0.58940236    -0.00200
C1638       C  0.98232420  0.75171060  0.59267197    -0.08700
C1639       C  0.99396703  0.78619939  0.57488690     0.61700
H1640       H  0.93555831  0.77491929  0.61664067     0.12400
H1641       H  0.00781987  0.66510316  0.60454856     0.12400
C1642       C  0.95096615  0.65507269  0.64894677     0.62000
F1643       F  0.97249349  0.81466210  0.58424130    -0.23200
F1644       F  0.99261140  0.78243507  0.53831467    -0.20500
F1645       F  0.02836967  0.79429593  0.58501795    -0.20200
F1646       F  0.91585889  0.64762910  0.64103973    -0.20300
F1647       F  0.95453199  0.65949581  0.68523045    -0.20600
F1648       F  0.97134521  0.62607273  0.63886972    -0.23300
C1649       C  0.15015271  0.88191162  0.71225174    -0.06100
C1650       C  0.13326273  0.89289737  0.74352485    -0.00200
C1651       C  0.14553247  0.88039893  0.77695729    -0.08800
C1652       C  0.17429201  0.85636219  0.77799752    -0.06100
C1653       C  0.19137287  0.84548862  0.74672875    -0.00200
C1654       C  0.17943574  0.85856601  0.71328530    -0.08700
C1655       C  0.19763495  0.84789757  0.67893630     0.61700
H1656       H  0.14002239  0.89165182  0.68697862     0.12400
H1657       H  0.18368688  0.84590113  0.80322814     0.12400
C1658       C  0.12823486  0.89273205  0.81120050     0.62000
F1659       F  0.18034111  0.86149662  0.64923167    -0.23200
F1660       F  0.19842793  0.81111680  0.67597568    -0.20500
F1661       F  0.23193515  0.86088230  0.67906814    -0.20200
F1662       F  0.09280290  0.88311082  0.81136761    -0.20300
F1663       F  0.13083627  0.92946800  0.81368261    -0.20600
F1664       F  0.14434278  0.87788477  0.84094588    -0.23300
C1665       C  0.00687063  0.86164512  0.71558496    -0.06100
C1666       C  0.00442680  0.89584727  0.73072434    -0.00200
C1667       C  0.97088822  0.90783457  0.74328835    -0.08800
C1668       C  0.94235433  0.88351493  0.74348781    -0.06100
C1669       C  0.94620510  0.84803601  0.73216693    -0.00200
C1670       C  0.97827469  0.83780235  0.71546791    -0.08700
C1671       C  0.98184866  0.80284962  0.69557103     0.61700
H1672       H  0.03183688  0.85321114  0.70410635     0.12400
H1673       H  0.91681286  0.89195121  0.75309112     0.12400
C1674       C  0.96492046  0.94538638  0.75730031     0.62000
F1675       F  0.01021429  0.80330513  0.67220175    -0.23200
F1676       F  0.95144882  0.79716243  0.67583074    -0.20500
F1677       F  0.98682344  0.77497364  0.71930000    -0.20200
F1678       F  0.97126201  0.97002103  0.73054483    -0.20300
F1679       F  0.98730175  0.95175783  0.78584611    -0.20600
F1680       F  0.93039914  0.95048616  0.76882164    -0.23300
C1681       C  0.13370329  0.23120770  0.62682776    -0.06100
C1682       C  0.13579537  0.25159159  0.59539176    -0.00200
C1683       C  0.16808467  0.26937424  0.58728457    -0.08800
C1684       C  0.19646593  0.26710308  0.61188191    -0.06100
C1685       C  0.19369776  0.24768758  0.64390016    -0.00200
C1686       C  0.16195194  0.22858361  0.65108465    -0.08700
C1687       C  0.15775769  0.20454696  0.68357514     0.61700
H1688       H  0.10928336  0.21710126  0.63248851     0.12400
H1689       H  0.22106190  0.28102249  0.60651263     0.12400
C1690       C  0.17260750  0.29132526  0.55355035     0.62000
F1691       F  0.12797487  0.18305519  0.68115577    -0.23200
F1692       F  0.15444901  0.22504184  0.71397122    -0.20500
F1693       F  0.18689360  0.18231878  0.68666140    -0.20200
F1694       F  0.14635183  0.31709136  0.55149498    -0.20300
F1695       F  0.17064953  0.26932546  0.52412440    -0.20600
F1696       F  0.20514512  0.30845140  0.55260491    -0.23300
C1697       C  0.94472750  0.26087252  0.60810610    -0.06100
C1698       C  0.94815281  0.24431759  0.64157568    -0.00200
C1699       C  0.98052317  0.22656098  0.65007597    -0.08800
C1700       C  0.00885664  0.22886097  0.62606434    -0.06100
C1701       C  0.00636592  0.24788398  0.59386047    -0.00200
C1702       C  0.97335201  0.26351511  0.58413698    -0.08700
C1703       C  0.96811601  0.28350505  0.54925160     0.61700
H1704       H  0.91933884  0.27203242  0.60085565     0.12400
H1705       H  0.03378192  0.21600430  0.63271104     0.12400
C1706       C  0.98527412  0.20395823  0.68349976     0.62000
F1707       F  0.93532123  0.30019738  0.54756195    -0.23200
F1708       F  0.97015872  0.25982850  0.52115696    -0.20500
F1709       F  0.99384910  0.30954623  0.54554193    -0.20200
F1710       F  0.95690536  0.18092196  0.68682678    -0.20300
F1711       F  0.98758895  0.22559391  0.71318555    -0.20600
F1712       F  0.01582015  0.18338666  0.68236327    -0.23300
C1713       C  0.14596140  0.10019273  0.77606942    -0.06100
C1714       C  0.13960216  0.08078531  0.74487741    -0.00200
C1715       C  0.16416971  0.08224375  0.71648233    -0.08800
C1716       C  0.19392463  0.10469396  0.71979875    -0.06100
C1717       C  0.19931386  0.12542235  0.75039736    -0.00200
C1718       C  0.17580361  0.12223843  0.77956151    -0.08700
C1719       C  0.18312319  0.14075266  0.81469223     0.61700
H1720       H  0.12700591  0.09820331  0.79763017     0.12400
H1721       H  0.21258075  0.10722329  0.69803298     0.12400
C1722       C  0.15816351  0.06136063  0.68245584     0.62000
F1723       F  0.15952400  0.13038778  0.84094771    -0.23200
F1724       F  0.18040227  0.17732087  0.81068761    -0.20500
F1725       F  0.21696458  0.13198142  0.82599973    -0.20200
F1726       F  0.12564318  0.07044833  0.66778363    -0.20300
F1727       F  0.15866751  0.02519015  0.68989182    -0.20600
F1728       F  0.18414108  0.06827895  0.65736089    -0.23300
C1729       C  0.97616757  0.13577616  0.77342104    -0.06100
C1730       C  0.94742085  0.12843020  0.75068957    -0.00200
C1731       C  0.94975191  0.09882842  0.72710279    -0.08800
C1732       C  0.98097591  0.07797389  0.72723629    -0.06100
C1733       C  0.01010199  0.08621794  0.74908378    -0.00200
C1734       C  0.00751271  0.11534536  0.77311560    -0.08700
C1735       C  0.03745487  0.12520096  0.79854478     0.61700
H1736       H  0.97412735  0.15836453  0.79123929     0.12400
H1737       H  0.98342975  0.05561111  0.70920555     0.12400
C1738       C  0.92054736  0.09014302  0.70047241     0.62000
F1739       F  0.02616719  0.14857282  0.82467122    -0.23200
F1740       F  0.06452642  0.14164285  0.77989259    -0.20500
F1741       F  0.05038141  0.09497046  0.81547142    -0.20200
F1742       F  0.93013275  0.06263431  0.67788895    -0.20300
F1743       F  0.91328598  0.11979828  0.67969295    -0.20600
F1744       F  0.89016835  0.07972547  0.71819509    -0.23300
C1745       C  0.45282459  0.11079442  0.29381619    -0.06100
C1746       C  0.43269242  0.11404121  0.26243877    -0.00200
C1747       C  0.43594704  0.08802155  0.23538206    -0.08800
C1748       C  0.45792031  0.05830422  0.24158722    -0.06100
C1749       C  0.47696301  0.05423326  0.27350749    -0.00200
C1750       C  0.47486374  0.08095163  0.30000565    -0.08700
C1751       C  0.49430839  0.07699289  0.33522870     0.61700
H1752       H  0.44998773  0.13114729  0.31404568     0.12400
H1753       H  0.46022099  0.03767764  0.22155919     0.12400
C1754       C  0.41708589  0.09215820  0.19976160     0.62000
F1755       F  0.48787817  0.10552040  0.35768297    -0.23200
F1756       F  0.53046676  0.07513310  0.32938720    -0.20500
F1757       F  0.48323847  0.04612928  0.35218092    -0.20200
F1758       F  0.42551425  0.12491542  0.18493392    -0.20300
F1759       F  0.38078695  0.08999366  0.20433300    -0.20600
F1760       F  0.42695791  0.06587197  0.17591576    -0.23300
C1761       C  0.45742005  0.91261765  0.30375069    -0.06100
C1762       C  0.47749917  0.92391212  0.27449489    -0.00200
C1763       C  0.47601901  0.90450498  0.24220970    -0.08800
C1764       C  0.45356557  0.87449935  0.24006022    -0.06100
C1765       C  0.43253789  0.86388221  0.26897975    -0.00200
C1766       C  0.43509004  0.88260269  0.30165549    -0.08700
C1767       C  0.41450068  0.87076197  0.33421431     0.61700
H1768       H  0.45888419  0.92795875  0.32812757     0.12400
H1769       H  0.45165449  0.85952490  0.21549573     0.12400
C1770       C  0.49762094  0.91589106  0.21006613     0.62000
F1771       F  0.42559916  0.88832065  0.36468209    -0.23200
F1772       F  0.41945388  0.83463168  0.33961864    -0.20500
F1773       F  0.37880052  0.87763410  0.32920819    -0.20200
F1774       F  0.53326843  0.91022748  0.21695860    -0.20300
F1775       F  0.49209605  0.95170735  0.20278270    -0.20600
F1776       F  0.48839604  0.89680839  0.17994092    -0.23300
C1777       C  0.33788673  0.08397882  0.08332576    -0.06100
C1778       C  0.31561355  0.05533601  0.09228485    -0.00200
C1779       C  0.29200059  0.05869414  0.12144526    -0.08800
C1780       C  0.29441081  0.08896403  0.14303509    -0.06100
C1781       C  0.31843596  0.11652668  0.13580803    -0.00200
C1782       C  0.33954259  0.11501078  0.10446583    -0.08700
C1783       C  0.36468643  0.14499423  0.09398487     0.61700
H1784       H  0.35501981  0.08121358  0.06038976     0.12400
H1785       H  0.27753101  0.09112873  0.16625649     0.12400
C1786       C  0.26396763  0.03080854  0.12997132     0.62000
F1787       F  0.38422854  0.13660503  0.06397865    -0.23200
F1788       F  0.38823063  0.15164084  0.12150293    -0.20500
F1789       F  0.34562588  0.17565769  0.08635572    -0.20200
F1790       F  0.27941553  0.00195509  0.14707836    -0.20300
F1791       F  0.24753904  0.01952701  0.09898101    -0.20600
F1792       F  0.23790581  0.04442685  0.15205842    -0.23300
C1793       C  0.35230946  0.92065899  0.11913828    -0.06100
C1794       C  0.32365914  0.92576805  0.09580362    -0.00200
C1795       C  0.29528555  0.90102632  0.09512808    -0.08800
C1796       C  0.29630184  0.87194029  0.11881931    -0.06100
C1797       C  0.32463597  0.86731848  0.14264793    -0.00200
C1798       C  0.35362468  0.89124638  0.14231133    -0.08700
C1799       C  0.38613904  0.88504002  0.16552362     0.61700
H1800       H  0.37368497  0.93998961  0.11900947     0.12400
H1801       H  0.27471889  0.85284631  0.11938447     0.12400
C1802       C  0.26369230  0.90596792  0.07038502     0.62000
F1803       F  0.41263585  0.90964111  0.15857260    -0.23200
F1804       F  0.39966527  0.85129347  0.15918685    -0.20500
F1805       F  0.37709285  0.88789287  0.20101783    -0.20200
F1806       F  0.27477294  0.90441823  0.03535468    -0.20300
F1807       F  0.24792100  0.93871364  0.07659123    -0.20600
F1808       F  0.23831275  0.87974187  0.07538197    -0.23300
C1809       C  0.69236122  0.05302666  0.76052795    -0.06100
C1810       C  0.66541209  0.05284981  0.73462709    -0.00200
C1811       C  0.66152235  0.08262172  0.71153271    -0.08800
C1812       C  0.68480349  0.11182007  0.71552453    -0.06100
C1813       C  0.71240829  0.11143786  0.74077159    -0.00200
C1814       C  0.71616250  0.08163769  0.76401787    -0.08700
C1815       C  0.74540927  0.07919718  0.79204963     0.61700
H1816       H  0.69526790  0.02981049  0.77759109     0.12400
H1817       H  0.68241067  0.13477217  0.69804382     0.12400
C1818       C  0.63417445  0.08291016  0.68178393     0.62000
F1819       F  0.73873717  0.05246862  0.81671198    -0.23200
F1820       F  0.74824969  0.11086323  0.81053310    -0.20500
F1821       F  0.77744623  0.07176234  0.77580735    -0.20200
F1822       F  0.60046494  0.08419200  0.69613917    -0.20300
F1823       F  0.63759821  0.05243543  0.66134920    -0.20600
F1824       F  0.63823473  0.11213618  0.65947348    -0.23300
C1825       C  0.66452025  0.90136318  0.75908564    -0.06100
C1826       C  0.66587490  0.92299260  0.72855331    -0.00200
C1827       C  0.68872867  0.91392538  0.70014461    -0.08800
C1828       C  0.71098897  0.88405481  0.70398579    -0.06100
C1829       C  0.71051773  0.86308733  0.73496568    -0.00200
C1830       C  0.68671786  0.87133534  0.76289556    -0.08700
C1831       C  0.68599466  0.84948236  0.79707683     0.61700
H1832       H  0.64678664  0.90894183  0.78042834     0.12400
H1833       H  0.72922907  0.87693848  0.68289852     0.12400
C1834       C  0.68901560  0.93536922  0.66573850     0.62000
F1835       F  0.66236798  0.86331616  0.82160446    -0.23200
F1836       F  0.71940780  0.84913341  0.81249309    -0.20500
F1837       F  0.67575438  0.81485662  0.78972889    -0.20200
F1838       F  0.70166810  0.96939419  0.67201984    -0.20300
F1839       F  0.65489469  0.93756760  0.65215670    -0.20600
F1840       F  0.71035941  0.91977073  0.64017358    -0.23300
C1841       C  0.84543833  0.05625053  0.88080709    -0.06100
C1842       C  0.81802277  0.05407620  0.90583697    -0.00200
C1843       C  0.79363841  0.08265335  0.90932359    -0.08800
C1844       C  0.79745507  0.11251507  0.88686686    -0.06100
C1845       C  0.82382537  0.11383210  0.86056994    -0.00200
C1846       C  0.84873066  0.08550782  0.85773344    -0.08700
C1847       C  0.87834962  0.08541480  0.83024865     0.61700
H1848       H  0.86369065  0.03399397  0.87861829     0.12400
H1849       H  0.77869846  0.13438514  0.88845534     0.12400
C1850       C  0.76251681  0.08076850  0.93488591     0.62000
F1851       F  0.90330149  0.05912548  0.83731559    -0.23200
F1852       F  0.89575083  0.11790768  0.83022511    -0.20500
F1853       F  0.86438147  0.07894651  0.79678637    -0.20200
F1854       F  0.77473825  0.08028534  0.96961012    -0.20300
F1855       F  0.74298497  0.05018773  0.92846869    -0.20600
F1856       F  0.74002580  0.10980261  0.93113329    -0.23300
C1857       C  0.79204924  0.87211880  0.87417770    -0.06100
C1858       C  0.82331448  0.86717730  0.85469284    -0.00200
C1859       C  0.85245840  0.89043728  0.85984150    -0.08800
C1860       C  0.84878057  0.91880920  0.88389976    -0.06100
C1861       C  0.81708947  0.92433361  0.90255584    -0.00200
C1862       C  0.78814223  0.90086413  0.89770645    -0.08700
C1863       C  0.75283546  0.90714719  0.91592420     0.61700
H1864       H  0.77024117  0.85376676  0.86993049     0.12400
H1865       H  0.87036124  0.93752106  0.88774810     0.12400
C1866       C  0.88688759  0.88570298  0.83968502     0.62000
F1867       F  0.72749486  0.88254739  0.90543827    -0.23200
F1868       F  0.74033107  0.94087318  0.90747476    -0.20500
F1869       F  0.75707033  0.90436036  0.95238358    -0.20200
F1870       F  0.88049701  0.89108550  0.80392641    -0.20300
F1871       F  0.90002081  0.85161297  0.84494284    -0.20600
F1872       F  0.91263059  0.90978467  0.85045251    -0.23300
C1873       C  0.35193835  0.40309485  0.09320217    -0.06100
C1874       C  0.32679963  0.39754318  0.06611214    -0.00200
C1875       C  0.30068765  0.37066503  0.07032150    -0.08800
C1876       C  0.30327494  0.34751599  0.09956163    -0.06100
C1877       C  0.32922548  0.35195896  0.12599944    -0.00200
C1878       C  0.35339256  0.38092389  0.12359755    -0.08700
C1879       C  0.38152441  0.38752021  0.15192803     0.61700
H1880       H  0.37134938  0.42410829  0.08964433     0.12400
H1881       H  0.28411089  0.32607281  0.10225573     0.12400
C1882       C  0.26931525  0.36547214  0.04532497     0.62000
F1883       F  0.40409086  0.41512556  0.14253566    -0.23200
F1884       F  0.40181152  0.35711150  0.15684997    -0.20500
F1885       F  0.36554813  0.39660899  0.18372768    -0.20200
F1886       F  0.27422275  0.33455294  0.02594565    -0.20300
F1887       F  0.26437905  0.39377141  0.02209079    -0.20600
F1888       F  0.23851870  0.36212650  0.06507709    -0.23300
C1889       C  0.31490847  0.36140816  0.93846859    -0.06100
C1890       C  0.33507653  0.39287027  0.93648816    -0.00200
C1891       C  0.35370766  0.40071956  0.90452207    -0.08800
C1892       C  0.35248685  0.37573953  0.87648253    -0.06100
C1893       C  0.33313796  0.34378519  0.87920763    -0.00200
C1894       C  0.31338793  0.33676144  0.91058892    -0.08700
C1895       C  0.28992038  0.30396886  0.91482481     0.61700
H1896       H  0.30009989  0.35600643  0.96251598     0.12400
H1897       H  0.36681579  0.38092966  0.85204515     0.12400
C1898       C  0.37481648  0.43489589  0.89965446     0.62000
F1899       F  0.31071966  0.27374246  0.91857583    -0.23200
F1900       F  0.26811426  0.30054987  0.88543193    -0.20500
F1901       F  0.26827021  0.30617432  0.94447347    -0.20200
F1902       F  0.39922702  0.43854067  0.92699697    -0.20300
F1903       F  0.35195423  0.46380482  0.89943088    -0.20600
F1904       F  0.39328827  0.43523980  0.86781192    -0.23300
C1905       C  0.18711038  0.20820569  0.07225651    -0.06100
C1906       C  0.16298545  0.23644188  0.06838536    -0.00200
C1907       C  0.15938957  0.26210622  0.09578938    -0.08800
C1908       C  0.18266207  0.26015486  0.12504620    -0.06100
C1909       C  0.20858081  0.23335956  0.12746609    -0.00200
C1910       C  0.20965333  0.20577186  0.10186682    -0.08700
C1911       C  0.23442914  0.17396709  0.10559500     0.61700
H1912       H  0.18879355  0.18843405  0.05131523     0.12400
H1913       H  0.18165591  0.28025837  0.14569447     0.12400
C1914       C  0.13224504  0.29205783  0.09361130     0.62000
F1915       F  0.22506352  0.14664136  0.08268204    -0.23200
F1916       F  0.23318945  0.16059800  0.13999547    -0.20500
F1917       F  0.26869783  0.18427947  0.09770306    -0.20200
F1918       F  0.09836969  0.27790616  0.09447485    -0.20300
F1919       F  0.13671180  0.31116732  0.06235571    -0.20600
F1920       F  0.13545699  0.31559596  0.12180752    -0.23300
C1921       C  0.19476952  0.21123575  0.93703580    -0.06100
C1922       C  0.16920065  0.23843778  0.93865873    -0.00200
C1923       C  0.16781299  0.26451666  0.91129066    -0.08800
C1924       C  0.19074356  0.26100847  0.88190753    -0.06100
C1925       C  0.21663394  0.23399693  0.88044044    -0.00200
C1926       C  0.21917344  0.20893847  0.90886239    -0.08700
C1927       C  0.24790238  0.18042753  0.91038835     0.61700
H1928       H  0.19619618  0.19228904  0.95886930     0.12400
H1929       H  0.18982483  0.28050661  0.86054344     0.12400
C1930       C  0.14438221  0.29734451  0.91447459     0.62000
F1931       F  0.24121878  0.15515863  0.93653219    -0.23200
F1932       F  0.28020726  0.19616401  0.91795088    -0.20500
F1933       F  0.25009635  0.16279804  0.87826859    -0.20200
F1934       F  0.15207097  0.31488239  0.94595395    -0.20300
F1935       F  0.10908166  0.28759322  0.91430438    -0.20600
F1936       F  0.14964387  0.32107444  0.88664083    -0.23300
C1937       C  0.81569796  0.56938086  0.09442934    -0.06100
C1938       C  0.79299403  0.57959525  0.06648158    -0.00200
C1939       C  0.77057312  0.60971476  0.07070997    -0.08800
C1940       C  0.77457653  0.63083220  0.10125673    -0.06100
C1941       C  0.79904202  0.62209500  0.12814265    -0.00200
C1942       C  0.81885346  0.58989875  0.12563791    -0.08700
C1943       C  0.84424880  0.57787435  0.15484451     0.61700
H1944       H  0.83199188  0.54580900  0.09102589     0.12400
H1945       H  0.75882749  0.65486525  0.10415042     0.12400
C1946       C  0.74177871  0.61913015  0.04380462     0.62000
F1947       F  0.86260878  0.54724207  0.14562082    -0.23200
F1948       F  0.82556406  0.57056375  0.18565282    -0.20500
F1949       F  0.86877874  0.60440083  0.16145770    -0.20200
F1950       F  0.72250263  0.58887748  0.03537691    -0.20300
F1951       F  0.75664237  0.63318561  0.01322494    -0.20600
F1952       F  0.71833756  0.64419346  0.05719090    -0.23300
C1953       C  0.82532368  0.61639689  0.94165497    -0.06100
C1954       C  0.80787202  0.58361264  0.93740087    -0.00200
C1955       C  0.79394573  0.57445086  0.90349904    -0.08800
C1956       C  0.79673773  0.59946314  0.87554479    -0.06100
C1957       C  0.81288444  0.63302079  0.88023386    -0.00200
C1958       C  0.82818951  0.64139584  0.91392748    -0.08700
C1959       C  0.84754364  0.67627866  0.92137804     0.61700
H1960       H  0.83634448  0.62267781  0.96755801     0.12400
H1961       H  0.78555897  0.59314687  0.84972642     0.12400
C1962       C  0.77521401  0.53918654  0.89682958     0.62000
F1963       F  0.86474925  0.67580413  0.95404876    -0.23200
F1964       F  0.82350083  0.70420642  0.92185154    -0.20500
F1965       F  0.87297794  0.68233414  0.89559431    -0.20200
F1966       F  0.74737009  0.53521036  0.92044534    -0.20300
F1967       F  0.79887987  0.51124477  0.90100245    -0.20600
F1968       F  0.76155989  0.53717730  0.86263638    -0.23300
C1969       C  0.95827751  0.72189439  0.11895325    -0.06100
C1970       C  0.92685022  0.74214565  0.12005286    -0.00200
C1971       C  0.92038222  0.76778691  0.09275009    -0.08800
C1972       C  0.94457043  0.77071728  0.06458335    -0.06100
C1973       C  0.97524350  0.74964747  0.06262535    -0.00200
C1974       C  0.98276538  0.72513514  0.09065897    -0.08700
C1975       C  0.01575581  0.70179263  0.09043176     0.61700
H1976       H  0.96327503  0.70308626  0.14030668     0.12400
H1977       H  0.93951517  0.78973302  0.04342273     0.12400
C1978       C  0.88897313  0.79327396  0.09369936     0.62000
F1979       F  0.01631050  0.67801837  0.11872188    -0.23200
F1980       F  0.04573372  0.72289046  0.09305326    -0.20500
F1981       F  0.01698220  0.68223342  0.05926414    -0.20200
F1982       F  0.88775461  0.80969827  0.12650760    -0.20300
F1983       F  0.85772410  0.77494154  0.08761187    -0.20600
F1984       F  0.89146881  0.81982881  0.06808210    -0.23300
C1985       C  0.98319072  0.72979399  0.90935346    -0.06100
C1986       C  0.97727228  0.75852396  0.93247480    -0.00200
C1987       C  0.95125821  0.78443754  0.92360378    -0.08800
C1988       C  0.92934090  0.77842591  0.89386696    -0.06100
C1989       C  0.93420552  0.74892598  0.87146365    -0.00200
C1990       C  0.96253683  0.72485623  0.87839075    -0.08700
C1991       C  0.97071466  0.69385816  0.85379623     0.61700
H1992       H  0.00383888  0.71079941  0.91617826     0.12400
H1993       H  0.90816889  0.79701931  0.88766305     0.12400
C1994       C  0.94786653  0.81916633  0.94406539     0.62000
F1995       F  0.99674732  0.67169272  0.86777842    -0.23200
F1996       F  0.98276377  0.70686207  0.82151642    -0.20500
F1997       F  0.94056370  0.67358066  0.84828566    -0.20200
F1998       F  0.98044920  0.83613146  0.94497977    -0.20300
F1999       F  0.93667515  0.81261065  0.97842422    -0.20600
F2000       F  0.92368873  0.84222602  0.92821413    -0.23300
C2001       C  0.48287080  0.07800802  0.71251822    -0.06100
C2002       C  0.47651625  0.05075009  0.73748176    -0.00200
C2003       C  0.44957011  0.05531847  0.76342074    -0.08800
C2004       C  0.42897538  0.08649477  0.76239666    -0.06100
C2005       C  0.43427138  0.11312158  0.73664937    -0.00200
C2006       C  0.46189825  0.10921880  0.71139195    -0.08700
C2007       C  0.46836951  0.13702620  0.68266515     0.61700
H2008       H  0.50372090  0.07408889  0.69311511     0.12400
H2009       H  0.40788808  0.09014209  0.78161796     0.12400
C2010       C  0.44231171  0.02771953  0.79229675     0.62000
F2011       F  0.49371495  0.12591769  0.65845225    -0.23200
F2012       F  0.48020588  0.16826905  0.69811916    -0.20500
F2013       F  0.43724809  0.14365508  0.66410764    -0.20200
F2014       F  0.47377923  0.01738360  0.80841181    -0.20300
F2015       F  0.42579800  0.99829478  0.77761861    -0.20600
F2016       F  0.42027301  0.04104439  0.81856508    -0.23300
C2017       C  0.45008198  0.86777947  0.70977906    -0.06100
C2018       C  0.42756302  0.86466308  0.73941156    -0.00200
C2019       C  0.43068923  0.88936232  0.76778103    -0.08800
C2020       C  0.45624590  0.91655738  0.76526460    -0.06100
C2021       C  0.47757140  0.92075405  0.73497470    -0.00200
C2022       C  0.47452153  0.89613407  0.70660967    -0.08700
C2023       C  0.49562938  0.90087075  0.67258249     0.61700
H2024       H  0.44739022  0.84851401  0.68848734     0.12400
H2025       H  0.45870251  0.93598553  0.78642745     0.12400
C2026       C  0.40648485  0.88799689  0.80008875     0.62000
F2027       F  0.48686927  0.87545200  0.64734510    -0.23200
F2028       F  0.53148821  0.89788537  0.67994181    -0.20500
F2029       F  0.48882031  0.93419288  0.65806772    -0.20200
F2030       F  0.41772061  0.91098292  0.82664769    -0.20300
F2031       F  0.40570471  0.85392447  0.81432556    -0.20600
F2032       F  0.37253165  0.89792334  0.79007018    -0.23300
C2033       C  0.33881510  0.07512989  0.91124733    -0.06100
C2034       C  0.31579759  0.04721011  0.90209431    -0.00200
C2035       C  0.29360942  0.05071863  0.87166296    -0.08800
C2036       C  0.29731029  0.08111679  0.85002818    -0.06100
C2037       C  0.32138499  0.10847991  0.85831285    -0.00200
C2038       C  0.34200443  0.10595704  0.89000909    -0.08700
C2039       C  0.36805607  0.13483649  0.90113709     0.61700
H2040       H  0.35504366  0.07217712  0.93494051     0.12400
H2041       H  0.28116913  0.08371896  0.82621231     0.12400
C2042       C  0.26573776  0.02305414  0.86188931     0.62000
F2043       F  0.38871207  0.12431183  0.92990154    -0.23200
F2044       F  0.34974063  0.16521073  0.91098983    -0.20500
F2045       F  0.39063179  0.14277162  0.87325296    -0.20200
F2046       F  0.24788437  0.01162726  0.89199646    -0.20300
F2047       F  0.28181841  0.99421318  0.84564970    -0.20600
F2048       F  0.24069428  0.03694459  0.83854568    -0.23300
C2049       C  0.28675073  0.91213303  0.88736666    -0.06100
C2050       C  0.31596537  0.91706270  0.91002660    -0.00200
C2051       C  0.34306526  0.89087302  0.91164940    -0.08800
C2052       C  0.34120293  0.86172168  0.88817520    -0.06100
C2053       C  0.31310639  0.85816668  0.86382613    -0.00200
C2054       C  0.28448437  0.88268419  0.86453839    -0.08700
C2055       C  0.25155642  0.87778392  0.84163191     0.61700
H2056       H  0.26599198  0.93218281  0.88703236     0.12400
H2057       H  0.36234505  0.84210297  0.88773655     0.12400
C2058       C  0.37426006  0.89425689  0.93706179     0.62000
F2059       F  0.22401381  0.89955722  0.85271239    -0.23200
F2060       F  0.24002375  0.84278365  0.84378964    -0.20500
F2061       F  0.25912033  0.88617536  0.80659647    -0.20200
F2062       F  0.36223103  0.89256664  0.97178621    -0.20300
F2063       F  0.39135173  0.92645526  0.93156660    -0.20600
F2064       F  0.39879253  0.86712425  0.93239755    -0.23300
C2065       C  0.65423292  0.08203219  0.25646904    -0.06100
C2066       C  0.66755469  0.05141624  0.27360248    -0.00200
C2067       C  0.70206005  0.05241467  0.28901488    -0.08800
C2068       C  0.72252794  0.08333751  0.28487071    -0.06100
C2069       C  0.71030084  0.11320046  0.26578922    -0.00200
C2070       C  0.67500616  0.11304949  0.25194215    -0.08700
C2071       C  0.65944747  0.14443946  0.23123973     0.61700
H2072       H  0.62772071  0.08090747  0.24531402     0.12400
H2073       H  0.74902743  0.08403975  0.29610044     0.12400
C2074       C  0.71787641  0.02123547  0.30980809     0.62000
F2075       F  0.62615957  0.13678355  0.21750738    -0.23200
F2076       F  0.68129663  0.15307828  0.20295658    -0.20500
F2077       F  0.65585893  0.17365888  0.25335094    -0.20200
F2078       F  0.72782964  0.99445042  0.28662790    -0.20300
F2079       F  0.69339509  0.00820023  0.33394605    -0.20600
F2080       F  0.74780901  0.03120366  0.32883565    -0.23300
C2081       C  0.68673076  0.92043852  0.23347644    -0.06100
C2082       C  0.66241650  0.92182216  0.26166471    -0.00200
C2083       C  0.66020721  0.89279566  0.28582293    -0.08800
C2084       C  0.68414595  0.86411697  0.28202086    -0.06100
C2085       C  0.70989302  0.86373509  0.25501240    -0.00200
C2086       C  0.71018295  0.89154777  0.22923143    -0.08700
C2087       C  0.73431232  0.89051212  0.19687227     0.61700
H2088       H  0.68760971  0.94272474  0.21502345     0.12400
H2089       H  0.68373022  0.84218337  0.30090249     0.12400
C2090       C  0.63392568  0.89285013  0.31639047     0.62000
F2091       F  0.72677110  0.91787208  0.17308427    -0.23200
F2092       F  0.72991037  0.85850745  0.17911702    -0.20500
F2093       F  0.76929739  0.89403181  0.20732176    -0.20200
F2094       F  0.59963017  0.89313773  0.30314849    -0.20300
F2095       F  0.63922494  0.92267323  0.33736975    -0.20600
F2096       F  0.63762465  0.86296556  0.33781257    -0.23300
C2097       C  0.83168126  0.10826150  0.10903048    -0.06100
C2098       C  0.81289883  0.10784514  0.14123329    -0.00200
C2099       C  0.78868996  0.07973939  0.14824988    -0.08800
C2100       C  0.78607243  0.05170004  0.12370945    -0.06100
C2101       C  0.80626240  0.05101379  0.09236891    -0.00200
C2102       C  0.82880253  0.08032590  0.08419885    -0.08700
C2103       C  0.85029678  0.08219765  0.05005339     0.61700
H2104       H  0.84917755  0.13057617  0.10375928     0.12400
H2105       H  0.76865511  0.02939600  0.12931906     0.12400
C2106       C  0.76545844  0.07915804  0.18128112     0.62000
F2107       F  0.87325232  0.11105728  0.04979851    -0.23200
F2108       F  0.82760185  0.08584668  0.02127905    -0.20500
F2109       F  0.87045314  0.05159366  0.04617589    -0.20200
F2110       F  0.74905861  0.11189042  0.18554313    -0.20300
F2111       F  0.78599276  0.07154223  0.21093968    -0.20600
F2112       F  0.73908285  0.05354473  0.17900648    -0.23300
C2113       C  0.83627350  0.92131272  0.11952296    -0.06100
C2114       C  0.81175516  0.92059868  0.09135167    -0.00200
C2115       C  0.79240295  0.88883375  0.08453915    -0.08800
C2116       C  0.79729261  0.85940350  0.10748941    -0.06100
C2117       C  0.82039242  0.86093013  0.13685403    -0.00200
C2118       C  0.84135311  0.89201443  0.14228889    -0.08700
C2119       C  0.86894852  0.89498419  0.17190983     0.61700
H2120       H  0.85127343  0.94555866  0.12399489     0.12400
H2121       H  0.78179189  0.83539309  0.10361663     0.12400
C2122       C  0.76532283  0.88638067  0.05463331     0.62000
F2123       F  0.89213186  0.92302924  0.16599756    -0.23200
F2124       F  0.88902784  0.86414526  0.17394766    -0.20500
F2125       F  0.85233518  0.90083229  0.20416886    -0.20200
F2126       F  0.78195492  0.89035979  0.02213804    -0.20300
F2127       F  0.73997983  0.91278424  0.05865454    -0.20600
F2128       F  0.74813638  0.85371429  0.05439607    -0.23300
C2129       C  0.83957996  0.36623354  0.11417353    -0.06100
C2130       C  0.81054434  0.34378760  0.12048572    -0.00200
C2131       C  0.78013174  0.34558656  0.09832370    -0.08800
C2132       C  0.78028538  0.36959992  0.06950024    -0.06100
C2133       C  0.80973538  0.39137557  0.06265160    -0.00200
C2134       C  0.83989614  0.38986238  0.08508947    -0.08700
C2135       C  0.87258900  0.41222405  0.07751440     0.61700
H2136       H  0.86241014  0.36436422  0.13172616     0.12400
H2137       H  0.75776020  0.37096115  0.05152080     0.12400
C2138       C  0.74790069  0.32218341  0.10501413     0.62000
F2139       F  0.89995410  0.40471180  0.10109571    -0.23200
F2140       F  0.86422180  0.44803497  0.08043071    -0.20500
F2141       F  0.88461623  0.40545175  0.04341568    -0.20200
F2142       F  0.73718546  0.32529784  0.14008241    -0.20300
F2143       F  0.75633601  0.28697172  0.09811703    -0.20600
F2144       F  0.71953233  0.33171006  0.08343257    -0.23300
C2145       C  0.84365855  0.35040070  0.89545200    -0.06100
C2146       C  0.81419997  0.35177457  0.87256983    -0.00200
C2147       C  0.78664465  0.37666806  0.87874356    -0.08800
C2148       C  0.78871187  0.39831829  0.90920774    -0.06100
C2149       C  0.81709174  0.39527655  0.93330093    -0.00200
C2150       C  0.84579356  0.37208919  0.92578305    -0.08700
C2151       C  0.87859655  0.37043144  0.94941258     0.61700
H2152       H  0.86472450  0.33156139  0.88971443     0.12400
H2153       H  0.76729766  0.41656166  0.91542856     0.12400
C2154       C  0.75436002  0.37882443  0.85450658     0.62000
F2155       F  0.90582821  0.35146658  0.93351031    -0.23200
F2156       F  0.87052580  0.35388350  0.98132770    -0.20500
F2157       F  0.89084010  0.40459015  0.95604639    -0.20200
F2158       F  0.73730942  0.34613776  0.85397542    -0.20300
F2159       F  0.76461537  0.38780732  0.82031902    -0.20600
F2160       F  0.73036461  0.40434158  0.86587521    -0.23300
C2161       C  0.92980767  0.26805770  0.10144741    -0.06100
C2162       C  0.93526157  0.23963301  0.12519380    -0.00200
C2163       C  0.96348256  0.21534096  0.11941407    -0.08800
C2164       C  0.98503166  0.22012721  0.08910424    -0.06100
C2165       C  0.97851023  0.24775140  0.06447637    -0.00200
C2166       C  0.95091501  0.27261752  0.07104412    -0.08700
C2167       C  0.94351909  0.30386548  0.04616670     0.61700
H2168       H  0.90813193  0.28636838  0.10657085     0.12400
H2169       H  0.00620785  0.20139092  0.08355973     0.12400
C2170       C  0.96952124  0.18359101  0.14399930     0.62000
F2171       F  0.92072858  0.32845239  0.06141007    -0.23200
F2172       F  0.92793085  0.29173817  0.01510556    -0.20500
F2173       F  0.97484093  0.32132492  0.03812518    -0.20200
F2174       F  0.93883927  0.16342884  0.14608017    -0.20300
F2175       F  0.97864493  0.19531438  0.17768055    -0.20600
F2176       F  0.99653555  0.16168916  0.13193585    -0.23300
C2177       C  0.96208810  0.25231994  0.87317890    -0.06100
C2178       C  0.92896063  0.23565074  0.87760846    -0.00200
C2179       C  0.92129324  0.21865375  0.91061700    -0.08800
C2180       C  0.94564354  0.22216645  0.93862153    -0.06100
C2181       C  0.97772023  0.24086436  0.93493899    -0.00200
C2182       C  0.98695973  0.25495300  0.90108633    -0.08700
C2183       C  0.02238474  0.27285687  0.89404763     0.61700
H2184       H  0.96829167  0.26375724  0.84754973     0.12400
H2185       H  0.93950268  0.21021831  0.96416812     0.12400
C2186       C  0.88839296  0.19588508  0.91668555     0.62000
F2187       F  0.02483413  0.28572334  0.85950605    -0.23200
F2188       F  0.04941741  0.24833014  0.89881245    -0.20500
F2189       F  0.02702235  0.30128987  0.91698640    -0.20200
F2190       F  0.88448982  0.17190364  0.88905402    -0.20300
F2191       F  0.85860706  0.21733869  0.91899377    -0.20600
F2192       F  0.89067252  0.17626531  0.94797119    -0.23300
C2193       C  0.35185951  0.60246311  0.12225289    -0.06100
C2194       C  0.32925400  0.63225603  0.11996172    -0.00200
C2195       C  0.30907213  0.63809762  0.08845126    -0.08800
C2196       C  0.31355752  0.61458212  0.05979927    -0.06100
C2197       C  0.33676213  0.58533394  0.06175011    -0.00200
C2198       C  0.35603260  0.57872288  0.09357949    -0.08700
C2199       C  0.38156052  0.54748166  0.09705808     0.61700
H2200       H  0.36680130  0.59827977  0.14661756     0.12400
H2201       H  0.29896709  0.61902024  0.03525833     0.12400
C2202       C  0.28228582  0.66838199  0.08500724     0.62000
F2203       F  0.40133091  0.54920528  0.12816819    -0.23200
F2204       F  0.40497584  0.54734232  0.06874155    -0.20500
F2205       F  0.36268813  0.51584624  0.09747090    -0.20200
F2206       F  0.29975158  0.70071991  0.08236778    -0.20300
F2207       F  0.26016291  0.66868163  0.11435588    -0.20600
F2208       F  0.26116291  0.66475801  0.05497982    -0.23300
C2209       C  0.32707616  0.57111288  0.90485743    -0.06100
C2210       C  0.34992737  0.58204805  0.93231950    -0.00200
C2211       C  0.37222853  0.61203885  0.92708061    -0.08800
C2212       C  0.36857198  0.63185193  0.89551270    -0.06100
C2213       C  0.34380313  0.62251926  0.86914849    -0.00200
C2214       C  0.32351343  0.59085969  0.87310819    -0.08700
C2215       C  0.29733303  0.57848885  0.84483812     0.61700
H2216       H  0.31086349  0.54763814  0.90912422     0.12400
H2217       H  0.38428349  0.65578791  0.89174427     0.12400
C2218       C  0.39946213  0.62370517  0.95460526     0.62000
F2219       F  0.27780781  0.54928086  0.85611529    -0.23200
F2220       F  0.31555213  0.56872207  0.81447110    -0.20500
F2221       F  0.27370469  0.60557473  0.83663377    -0.20200
F2222       F  0.42400941  0.64699242  0.94006173    -0.20300
F2223       F  0.41790509  0.59445356  0.96759710    -0.20600
F2224       F  0.38263999  0.64088510  0.98238902    -0.23300
C2225       C  0.15371112  0.73783533  0.09284571    -0.06100
C2226       C  0.16653831  0.75447821  0.06199520    -0.00200
C2227       C  0.20065340  0.77066447  0.06262199    -0.08800
C2228       C  0.22130782  0.76770972  0.09366381    -0.06100
C2229       C  0.20957962  0.74901079  0.12397080    -0.00200
C2230       C  0.17472293  0.73429592  0.12378692    -0.08700
C2231       C  0.16031199  0.71289906  0.15487497     0.61700
H2232       H  0.12755776  0.72591314  0.09186562     0.12400
H2233       H  0.24751261  0.77955015  0.09404979     0.12400
C2234       C  0.21585675  0.79087974  0.03086183     0.62000
F2235       F  0.12763305  0.69777363  0.14731428    -0.23200
F2236       F  0.15611004  0.73468400  0.18422800    -0.20500
F2237       F  0.18368976  0.68557904  0.16276304    -0.20200
F2238       F  0.19041487  0.81330532  0.01630553    -0.20300
F2239       F  0.22736513  0.76702147  0.00533218    -0.20600
F2240       F  0.24460963  0.81174975  0.04051550    -0.23300
C2241       C  0.19099838  0.71156747  0.93477018    -0.06100
C2242       C  0.16353364  0.73697569  0.93380670    -0.00200
C2243       C  0.15961921  0.75938402  0.90360530    -0.08800
C2244       C  0.18430376  0.75628457  0.87577398    -0.06100
C2245       C  0.21267071  0.73198193  0.87746752    -0.00200
C2246       C  0.21565608  0.70842871  0.90694857    -0.08700
C2247       C  0.24415026  0.67972086  0.90889765     0.61700
H2248       H  0.19353941  0.69469641  0.95814935     0.12400
H2249       H  0.18228266  0.77368328  0.85273752     0.12400
C2250       C  0.13065862  0.78752376  0.90138447     0.62000
F2251       F  0.23835715  0.65615464  0.93679571    -0.23200
F2252       F  0.27708269  0.69518121  0.91388282    -0.20500
F2253       F  0.24426730  0.66026625  0.87767234    -0.20200
F2254       F  0.13284824  0.81004185  0.93044931    -0.20300
F2255       F  0.09777100  0.77119023  0.90083689    -0.20600
F2256       F  0.13349616  0.80814593  0.87087342    -0.23300
loop_ 
_geom_bond_atom_site_label_1 
_geom_bond_atom_site_label_2 
_geom_bond_distance 
_geom_bond_site_symmetry_2 
_ccdc_geom_bond_type 
C1            N2   1.357       .  A
C1            N6   1.350       .  A
C1         C2242   1.477       .  S
N2            C3   1.361       .  A
C3            N4   1.364   1_556  A
C3           C51   1.474       .  S
N4            C5   1.363       .  A
C5            N6   1.350   1_554  A
C5         C2226   1.483       .  S
C7            N8   1.356   1_554  A
C7           N12   1.357       .  A
C7         C2197   1.478       .  S
N8            C9   1.355       .  A
C9           N10   1.358       .  A
C9         C2210   1.477       .  S
N10          C11   1.358       .  A
C11          N12   1.359   1_556  A
C11          C69   1.466       .  S
C13          N14   1.356   1_655  A
C13          N18   1.350   1_554  A
C13        C2165   1.479       .  S
N14          C15   1.362   1_554  A
C15          N16   1.361       .  A
C15          C63   1.467   1_556  S
N16          C17   1.358   1_455  A
C17          N18   1.357       .  A
C17        C2181   1.486       .  S
C19          N20   1.357       .  A
C19          N24   1.354       .  A
C19        C2149   1.470       .  S
N20          C21   1.360       .  A
C21          N22   1.359   1_556  A
C21          C57   1.466   1_556  S
N22          C23   1.356       .  A
C23          N24   1.353   1_554  A
C23        C2133   1.465       .  S
C25          N26   1.358   1_545  A
C25          N30   1.355       .  A
C25        C2101   1.483       .  S
N26          C27   1.358       .  A
C27          N28   1.356       .  A
C27        C2114   1.482       .  S
N28          C29   1.359       .  A
C29          N30   1.359   1_565  A
C29          C77   1.463   1_554  S
C31          N32   1.363       .  A
C31          N36   1.353   1_545  A
C31        C2066   1.486       .  S
N32          C33   1.364   1_545  A
C33          N34   1.361       .  A
C33          C93   1.473       .  S
N34          C35   1.356       .  A
C35          N36   1.352       .  A
C35        C2082   1.480       .  S
C37          N38   1.356       .  A
C37          N42   1.354       .  A
C37        C2050   1.474       .  S
N38          C39   1.361       .  A
C39          N40   1.359   1_565  A
C39          C89   1.468   1_556  S
N40          C41   1.360       .  A
C41          N42   1.354   1_545  A
C41        C2034   1.479       .  S
C43          N44   1.353       .  A
C43          N48   1.361       .  A
C43        C2021   1.480       .  S
N44          C45   1.353   1_565  A
C45          N46   1.359       .  A
C45        C2002   1.480       .  S
N46          C47   1.362   1_545  A
C47          N48   1.366       .  A
C47          C81   1.475       .  S
C49          N50   1.360   1_655  A
C49          N54   1.360   1_554  A
C49        C1973   1.490       .  S
N50          C51   1.361   1_554  A
C51          N52   1.361       .  A
N52          C53   1.359   1_455  A
C53          N54   1.356       .  A
C53        C1986   1.480       .  S
C55          N56   1.359       .  A
C55          N60   1.353       .  A
C55        C1938   1.479       .  S
N56          C57   1.361       .  A
C57          N58   1.359   1_554  A
N58          C59   1.356       .  A
C59          N60   1.355   1_556  A
C59        C1954   1.485       .  S
C61          N62   1.362       .  A
C61          N66   1.356   1_556  A
C61        C1922   1.482       .  S
N62          C63   1.363   1_556  A
C63          N64   1.356       .  A
N64          C65   1.352       .  A
C65          N66   1.355       .  A
C65        C1906   1.468       .  S
C67          N68   1.359       .  A
C67          N72   1.357   1_556  A
C67        C1890   1.491       .  S
N68          C69   1.362       .  A
C69          N70   1.359   1_556  A
N70          C71   1.355       .  A
C71          N72   1.353       .  A
C71        C1874   1.473       .  S
C73          N74   1.353       .  A
C73          N78   1.357       .  A
C73        C1861   1.468       .  S
N74          C75   1.354   1_565  A
C75          N76   1.354       .  A
C75        C1842   1.473       .  S
N76          C77   1.358   1_545  A
C77          N78   1.360       .  A
C79          N80   1.361       .  A
C79          N84   1.355   1_545  A
C79        C1810   1.484       .  S
N80          C81   1.365   1_545  A
C81          N82   1.361       .  A
N82          C83   1.357       .  A
C83          N84   1.353       .  A
C83        C1826   1.471       .  S
C85          N86   1.354   1_545  A
C85          N90   1.362       .  A
C85        C1778   1.479       .  S
N86          C87   1.351       .  A
C87          N88   1.353       .  A
C87        C1794   1.466       .  S
N88          C89   1.357       .  A
C89          N90   1.364   1_565  A
C91          N92   1.356       .  A
C91          N96   1.356       .  A
C91        C1762   1.477       .  S
N92          C93   1.360       .  A
C93          N94   1.362   1_565  A
N94          C95   1.361       .  A
C95          N96   1.359   1_545  A
C95        C1749   1.478       .  S
C97          N98   1.363       .  A
C97         N102   1.354       .  A
C97        C1733   1.488       .  S
N98          C99   1.364       .  A
C99         N100   1.359       .  A
C99         C111   1.472   1_545  S
N100        C101   1.355       .  A
C101        N102   1.354       .  A
C101       C1714   1.471       .  S
C103        N104   1.356       .  A
C103        N108   1.355       .  A
C103       C1701   1.489       .  S
N104        C105   1.361       .  A
C105        N106   1.364       .  A
C105        C143   1.471       .  S
N106        C107   1.360       .  A
C107        N108   1.356       .  A
C107       C1682   1.492       .  S
C109        N110   1.357       .  A
C109        N114   1.352       .  A
C109       C1650   1.473       .  S
N110        C111   1.362       .  A
C111        N112   1.361       .  A
N112        C113   1.359       .  A
C113        N114   1.358       .  A
C113       C1666   1.491       .  S
C115        N116   1.356       .  A
C115        N120   1.358       .  A
C115       C1637   1.478       .  S
N116        C117   1.360       .  A
C117        N118   1.359       .  A
C117       C1618   1.488       .  S
N118        C119   1.359       .  A
C119        N120   1.362       .  A
C119        C129   1.473       .  S
C121        N122   1.354       .  A
C121        N126   1.359       .  A
C121       C1602   1.474       .  S
N122        C123   1.354       .  A
C123        N124   1.358       .  A
C123       C1586   1.479       .  S
N124        C125   1.362       .  A
C125        N126   1.359       .  A
C125        C137   1.471   1_565  S
C127        N128   1.364       .  A
C127        N132   1.356       .  A
C127       C1570   1.488       .  S
N128        C129   1.365       .  A
C129        N130   1.358       .  A
N130        C131   1.354       .  A
C131        N132   1.355       .  A
C131       C1554   1.476       .  S
C133        N134   1.358       .  A
C133        N138   1.355       .  A
C133       C1541   1.482       .  S
N134        C135   1.356       .  A
C135        N136   1.362       .  A
C135       C1522   1.488       .  S
N136        C137   1.365       .  A
C137        N138   1.359       .  A
C139        N140   1.357       .  A
C139        N144   1.363       .  A
C139       C1490   1.489       .  S
N140        C141   1.355       .  A
C141        N142   1.355       .  A
C141       C1509   1.473       .  S
N142        C143   1.359       .  A
C143        N144   1.362       .  A
C145        N146   1.355       .  A
C145        N150   1.355       .  A
C145       C1458   1.475       .  S
N146        C147   1.355       .  A
C147        N148   1.355       .  A
C147       C1477   1.467       .  S
N148        C149   1.357       .  A
C149        N150   1.358       .  A
C149        C293   1.460       .  S
C151        N152   1.358       .  A
C151        N156   1.356       .  A
C151       C1445   1.475       .  S
N152        C153   1.359       .  A
C153        N154   1.361       .  A
C153        C365   1.470       .  S
N154        C155   1.358       .  A
C155        N156   1.358       .  A
C155       C1426   1.482       .  S
O157       Zr193   2.431       .  S
O157        C168   1.292       .  A
O158       Zr192   2.443       .  S
O158        C169   1.292       .  A
O159       Zr165   2.448       .  S
O159        C170   1.294       .  A
O160       Zr165   2.426       .  S
O160        C171   1.290       .  A
O161       Zr195   2.431       .  S
O161        C171   1.290       .  A
O162       Zr194   2.442       .  S
O162        C170   1.292       .  A
O163       Zr165   2.439       .  S
O163        C169   1.293       .  A
O164       Zr165   2.445       .  S
O164        C168   1.291       .  A
Zr165       O166   2.344       .  S
Zr165       O167   2.341       .  S
Zr165       O175   2.344       .  S
Zr165       O173   2.333       .  S
O166       Zr192   2.330       .  S
O166       Zr195   2.341       .  S
O167       Zr193   2.342       .  S
O167       Zr194   2.344       .  S
C168       C2229   1.496       .  S
C169       C1573   1.485       .  S
C170       C1429   1.484       .  S
C171       C1605   1.468       .  S
H172        O173   0.965       .  S
O173       Zr192   2.329       .  S
O173       Zr194   2.337       .  S
H174        O175   0.965       .  S
O175       Zr193   2.337       .  S
O175       Zr195   2.345       .  S
O176       Zr192   2.424       .  S
O176        C199   1.288       .  A
O177       Zr193   2.436       .  S
O177        C200   1.290       .  A
O178       Zr194   2.441       .  S
O178        C201   1.292       .  A
O179       Zr195   2.441       .  S
O179        C202   1.293       .  A
O180       Zr195   2.432       .  S
O180        C203   1.290       .  A
O181       Zr194   2.439       .  S
O181        C204   1.293       .  A
O182       Zr196   2.436       .  S
O182        C205   1.291       .  A
O183       Zr196   2.457       .  S
O183        C206   1.295       .  A
O184       Zr194   2.447       .  S
O184        C205   1.294       .  A
O185       Zr195   2.442       .  S
O185        C206   1.292       .  A
O186       Zr192   2.421       .  S
O186        C201   1.289       .  A
O187       Zr193   2.428       .  S
O187        C204   1.288       .  A
O188       Zr193   2.426       .  S
O188        C203   1.289       .  A
O189       Zr192   2.435       .  S
O189        C202   1.290       .  A
O190       Zr196   2.436       .  S
O190        C199   1.292       .  A
O191       Zr196   2.446       .  S
O191        C200   1.295       .  A
Zr192       O198   2.344       .  S
Zr192       O210   2.337       .  S
Zr193       O197   2.343       .  S
Zr193       O208   2.332       .  S
Zr194       O198   2.341       .  S
Zr194       O208   2.341       .  S
Zr195       O197   2.342       .  S
Zr195       O210   2.333       .  S
Zr196       O197   2.336       .  S
Zr196       O198   2.345       .  S
Zr196       O210   2.342       .  S
Zr196       O208   2.341       .  S
C199       C1394   1.471       .  S
C200       C1381   1.485       .  S
C201       C1461   1.477       .  S
C202       C1410   1.487       .  S
C203       C1797   1.464       .  S
C204       C2194   1.480       .  S
C205       C1365   1.489       .  S
C206       C1765   1.481       .  S
H207        O208   0.965       .  S
H209        O210   0.965       .  S
C211        N212   1.360       .  A
C211        N216   1.350       .  A
C211       C1346   1.481       .  S
N212        C213   1.363       .  A
C213        N214   1.364       .  A
C213        C605   1.474       .  S
N214        C215   1.360       .  A
C215        N216   1.353       .  A
C215       C1333   1.489       .  S
C217        N218   1.353       .  A
C217        N222   1.358       .  A
C217       C1317   1.467       .  S
N218        C219   1.354       .  A
C219        N220   1.358       .  A
C219       C1298   1.474       .  S
N220        C221   1.360       .  A
C221        N222   1.361       .  A
C221        C287   1.470   1_545  S
O223       Zr259   2.442       .  S
O223        C234   1.294       .  A
O224       Zr258   2.441       .  S
O224        C235   1.293       .  A
O225       Zr231   2.418       .  S
O225        C236   1.288       .  A
O226       Zr231   2.430       .  S
O226        C237   1.289       .  A
O227       Zr261   2.452       .  S
O227        C237   1.294       .  A
O228       Zr260   2.446       .  S
O228        C236   1.293       .  A
O229       Zr231   2.427       .  S
O229        C235   1.289       .  A
O230       Zr231   2.429       .  S
O230        C234   1.288       .  A
Zr231       O232   2.334       .  S
Zr231       O233   2.339       .  S
Zr231       O241   2.330       .  S
Zr231       O239   2.334       .  S
O232       Zr258   2.342       .  S
O232       Zr261   2.332       .  S
O233       Zr259   2.337       .  S
O233       Zr260   2.342       .  S
C234       C2037   1.484       .  S
C235       C1893   1.483       .  S
C236       C1253   1.476       .  S
C237       C1925   1.486       .  S
H238        O239   0.964       .  S
O239       Zr258   2.340       .  S
O239       Zr260   2.337       .  S
H240        O241   0.965       .  S
O241       Zr259   2.343       .  S
O241       Zr261   2.335       .  S
O242       Zr258   2.445       .  S
O242        C265   1.293       .  A
O243       Zr259   2.436       .  S
O243        C266   1.292       .  A
O244       Zr260   2.440       .  S
O244        C267   1.292       .  A
O245       Zr261   2.438       .  S
O245        C268   1.292       .  A
O246       Zr261   2.436       .  S
O246        C269   1.291       .  A
O247       Zr260   2.444       .  S
O247        C270   1.292       .  A
O248       Zr262   2.440       .  S
O248        C271   1.291       .  A
O249       Zr262   2.443       .  S
O249        C272   1.293       .  A
O250       Zr260   2.440       .  S
O250        C271   1.293       .  A
O251       Zr261   2.432       .  S
O251        C272   1.290       .  A
O252       Zr258   2.443       .  S
O252        C267   1.293       .  A
O253       Zr259   2.437       .  S
O253        C270   1.293       .  A
O254       Zr259   2.435       .  S
O254        C269   1.291       .  A
O255       Zr258   2.438       .  S
O255        C268   1.291       .  A
O256       Zr262   2.438       .  S
O256        C265   1.292       .  A
O257       Zr262   2.436       .  S
O257        C266   1.291       .  A
Zr258       O264   2.340       .  S
Zr258       O276   2.340       .  S
Zr259       O263   2.338       .  S
Zr259       O274   2.344       .  S
Zr260       O264   2.345       .  S
Zr260       O274   2.346       .  S
Zr261       O263   2.341       .  S
Zr261       O276   2.341       .  S
Zr262       O263   2.336       .  S
Zr262       O264   2.344       .  S
Zr262       O276   2.341       .  S
Zr262       O274   2.346       .  S
C265       C1266   1.481       .  S
C266       C1301   1.477       .  S
C267       C1234   1.479       .  S
C268       C1282   1.480       .  S
C269       C1717   1.473       .  S
C270       C2005   1.480       .  S
C271       C1330   1.494       .  S
C272       C1685   1.488       .  S
H273        O274   0.966       .  S
H275        O276   0.966       .  S
C277        N278   1.353       .  A
C277        N282   1.353       .  A
C277       C1397   1.465       .  S
N278        C279   1.357       .  A
C279        N280   1.366       .  A
C279        C437   1.471       .  S
N280        C281   1.363       .  A
C281        N282   1.352       .  A
C281       C1218   1.478       .  S
C283        N284   1.355       .  A
C283        N288   1.357       .  A
C283       C1202   1.473       .  S
N284        C285   1.357       .  A
C285        N286   1.359       .  A
C285       C1413   1.486       .  S
N286        C287   1.361       .  A
C287        N288   1.360       .  A
C289        N290   1.355       .  A
C289        N294   1.358       .  A
C289       C1269   1.476       .  S
N290        C291   1.356       .  A
C291        N292   1.353       .  A
C291       C1186   1.467       .  S
N292        C293   1.356       .  A
C293        N294   1.360       .  A
C295        N296   1.356       .  A
C295        N300   1.358       .  A
C295       C1285   1.481       .  S
N296        C297   1.356       .  A
C297        N298   1.359       .  A
C297       C1173   1.482       .  S
N298        C299   1.362       .  A
C299        N300   1.361       .  A
C299        C467   1.473       .  S
O301       Zr337   2.443       .  S
O301        C312   1.292       .  A
O302       Zr336   2.450       .  S
O302        C313   1.295       .  A
O303       Zr309   2.452       .  S
O303        C314   1.294       .  A
O304       Zr309   2.447       .  S
O304        C315   1.294       .  A
O305       Zr339   2.424       .  S
O305        C315   1.288       .  A
O306       Zr338   2.444       .  S
O306        C314   1.292       .  A
O307       Zr309   2.431       .  S
O307        C313   1.289       .  A
O308       Zr309   2.433       .  S
O308        C312   1.291       .  A
Zr309       O310   2.340       .  S
Zr309       O311   2.340       .  S
Zr309       O319   2.344       .  S
Zr309       O317   2.343       .  S
O310       Zr336   2.340       .  S
O310       Zr339   2.336       .  S
O311       Zr337   2.345       .  S
O311       Zr338   2.342       .  S
C312       C2245   1.477       .  S
C313       C1621   1.489       .  S
C314       C1653   1.477       .  S
C315       C1170   1.479       .  S
H316        O317   0.965       .  S
O317       Zr336   2.336       .  S
O317       Zr338   2.341       .  S
H318        O319   0.966       .  S
O319       Zr337   2.343       .  S
O319       Zr339   2.343       .  S
O320       Zr336   2.446       .  S
O320        C343   1.294       .  A
O321       Zr337   2.457       .  S
O321        C344   1.296       .  A
O322       Zr338   2.431       .  S
O322        C345   1.290       .  A
O323       Zr339   2.436       .  S
O323        C346   1.293       .  A
O324       Zr339   2.431       .  S
O324        C347   1.289       .  A
O325       Zr338   2.431       .  S
O325        C348   1.290       .  A
O326       Zr340   2.442       .  S
O326        C349   1.292       .  A
O327       Zr340   2.450       .  S
O327        C350   1.295       .  A
O328       Zr338   2.450       .  S
O328        C349   1.294       .  A
O329       Zr339   2.436       .  S
O329        C350   1.290       .  A
O330       Zr336   2.438       .  S
O330        C345   1.292       .  A
O331       Zr337   2.435       .  S
O331        C348   1.291       .  A
O332       Zr337   2.436       .  S
O332        C347   1.293       .  A
O333       Zr336   2.425       .  S
O333        C346   1.288       .  A
O334       Zr340   2.430       .  S
O334        C343   1.290       .  A
O335       Zr340   2.426       .  S
O335        C344   1.287       .  A
Zr336       O342   2.338       .  S
Zr336       O354   2.349       .  S
Zr337       O341   2.336       .  S
Zr337       O352   2.338       .  S
Zr338       O342   2.339       .  S
Zr338       O352   2.339       .  S
Zr339       O341   2.334       .  S
Zr339       O354   2.339       .  S
Zr340       O341   2.330       .  S
Zr340       O342   2.339       .  S
Zr340       O354   2.340       .  S
Zr340       O352   2.343       .  S
C343       C1221   1.475       .  S
C344       C1154   1.498       .  S
C345       C1205   1.472       .  S
C346       C1189   1.476       .  S
C347       C2213   1.478       .  S
C348       C2053   1.473       .  S
C349       C2018   1.481       .  S
C350       C1138   1.489       .  S
H351        O352   0.965       .  S
H353        O354   0.966       .  S
C355        N356   1.353       .  A
C355        N360   1.353       .  A
C355       C1106   1.466       .  S
N356        C357   1.356       .  A
C357        N358   1.358       .  A
C357       C1122   1.487       .  S
N358        C359   1.361       .  A
C359        N360   1.355       .  A
C359        C461   1.461       .  S
C361        N362   1.348       .  A
C361        N366   1.355   1_655  A
C361       C1074   1.466       .  S
N362        C363   1.349       .  A
C363        N364   1.364   1_655  A
C363       C1090   1.492       .  S
N364        C365   1.366       .  A
C365        N366   1.360       .  A
C367        N368   1.354       .  A
C367        N372   1.356       .  A
C367       C1058   1.479       .  S
N368        C369   1.357       .  A
C369        N370   1.360       .  A
C369        C525   1.464       .  S
N370        C371   1.358       .  A
C371        N372   1.358       .  A
C371       C1362   1.493       .  S
C373        N374   1.354       .  A
C373        N378   1.351       .  A
C373       C1042   1.465       .  S
N374        C375   1.359       .  A
C375        N376   1.362       .  A
C375        C453   1.468   1_554  S
N376        C377   1.361       .  A
C377        N378   1.353       .  A
C377       C1378   1.478       .  S
O379       Zr415   2.406       .  S
O379        C390   1.285       .  A
O380       Zr414   2.429       .  S
O380        C391   1.289       .  A
O381       Zr387   2.432       .  S
O381        C392   1.289       .  A
O382       Zr387   2.427       .  S
O382        C393   1.290       .  A
O383       Zr417   2.429       .  S
O383        C393   1.290       .  A
O384       Zr416   2.454       .  S
O384        C392   1.295       .  A
O385       Zr387   2.445       .  S
O385        C391   1.294       .  A
O386       Zr387   2.454       .  S
O386        C390   1.296       .  A
Zr387       O388   2.339       .  S
Zr387       O389   2.335       .  S
Zr387       O397   2.340       .  S
Zr387       O395   2.342       .  S
O388       Zr414   2.339       .  S
O388       Zr417   2.340       .  S
O389       Zr415   2.342       .  S
O389       Zr416   2.331       .  S
C390       C2117   1.481       .  S
C391       C1941   1.481       .  S
C392       C1970   1.491       .  S
C393       C1045   1.463       .  S
H394        O395   0.966       .  S
O395       Zr414   2.347       .  S
O395       Zr416   2.338       .  S
H396        O397   0.965       .  S
O397       Zr415   2.343       .  S
O397       Zr417   2.336       .  S
O398       Zr414   2.428       .  S
O398        C421   1.291       .  A
O399       Zr415   2.436       .  S
O399        C422   1.291       .  A
O400       Zr416   2.418       .  S
O400        C423   1.287       .  A
O401       Zr417   2.431       .  S
O401        C424   1.289       .  A
O402       Zr417   2.440       .  S
O402        C425   1.292       .  A
O403       Zr416   2.422       .  S
O403        C426   1.288       .  A
O404       Zr418   2.441       .  S
O404        C427   1.293       .  A
O405       Zr418   2.439       .  S
O405        C428   1.291       .  A
O406       Zr416   2.432       .  S
O406        C427   1.290       .  A
O407       Zr417   2.436       .  S
O407        C428   1.292       .  A
O408       Zr414   2.445       .  S
O408        C423   1.294       .  A
O409       Zr415   2.449       .  S
O409        C426   1.295       .  A
O410       Zr415   2.454       .  S
O410        C425   1.294       .  A
O411       Zr414   2.442       .  S
O411        C424   1.293       .  A
O412       Zr418   2.428       .  S
O412        C421   1.289       .  A
O413       Zr418   2.429       .  S
O413        C422   1.290       .  A
Zr414       O420   2.333       .  S
Zr414       O432   2.338       .  S
Zr415       O419   2.336       .  S
Zr415       O430   2.337       .  S
Zr416       O420   2.337       .  S
Zr416       O430   2.344       .  S
Zr417       O419   2.342       .  S
Zr417       O432   2.336       .  S
Zr418       O419   2.340       .  S
Zr418       O420   2.337       .  S
Zr418       O432   2.336       .  S
Zr418       O430   2.335       .  S
C421       C1109   1.473       .  S
C422       C1026   1.468       .  S
C423       C1077   1.473       .  S
C424       C1061   1.483       .  S
C425       C2085   1.484       .  S
C426       C1589   1.482       .  S
C427       C1557   1.475       .  S
C428       C1010   1.489       .  S
H429        O430   0.966       .  S
H431        O432   0.965       .  S
C433        N434   1.357       .  A
C433        N438   1.356       .  A
C433        C994   1.482       .  S
N434        C435   1.357       .  A
C435        N436   1.359       .  A
C435       C1013   1.496       .  S
N436        C437   1.364       .  A
C437        N438   1.358       .  A
C439        N440   1.356       .  A
C439        N444   1.357       .  A
C439        C978   1.481       .  S
N440        C441   1.356       .  A
C441        N442   1.358       .  A
C441       C1029   1.471       .  S
N442        C443   1.361       .  A
C443        N444   1.359       .  A
C443        C609   1.470   1_565  S
C445        N446   1.356       .  A
C445        N450   1.353       .  A
C445        C962   1.472       .  S
N446        C447   1.358       .  A
C447        N448   1.364       .  A
C447        C593   1.469       .  S
N448        C449   1.360       .  A
C449        N450   1.351       .  A
C449       C1141   1.482       .  S
C451        N452   1.359       .  A
C451        N456   1.359       .  A
C451       C1157   1.498       .  S
N452        C453   1.361       .  A
C453        N454   1.360       .  A
N454        C455   1.355       .  A
C455        N456   1.357       .  A
C455        C946   1.485       .  S
C457        N458   1.354       .  A
C457        N462   1.358       .  A
C457        C933   1.478       .  S
N458        C459   1.350       .  A
C459        N460   1.352       .  A
C459        C914   1.456       .  S
N460        C461   1.355       .  A
C461        N462   1.362       .  A
C463        N464   1.355       .  A
C463        N468   1.359   1_655  A
C463        C898   1.484       .  S
N464        C465   1.354       .  A
C465        N466   1.360   1_655  A
C465        C882   1.477       .  S
N466        C467   1.362       .  A
C467        N468   1.361       .  A
O469       Zr505   2.449       .  S
O469        C480   1.295       .  A
O470       Zr504   2.436       .  S
O470        C481   1.290       .  A
O471       Zr477   2.455       .  S
O471        C482   1.296       .  A
O472       Zr477   2.445       .  S
O472        C483   1.293       .  A
O473       Zr507   2.434       .  S
O473        C483   1.292       .  A
O474       Zr506   2.434       .  S
O474        C482   1.291       .  A
O475       Zr477   2.461       .  S
O475        C481   1.296       .  A
O476       Zr477   2.441       .  S
O476        C480   1.292       .  A
Zr477       O478   2.340       .  S
Zr477       O479   2.341       .  S
Zr477       O487   2.348       .  S
Zr477       O485   2.341       .  S
O478       Zr504   2.335       .  S
O478       Zr507   2.345       .  S
O479       Zr505   2.338       .  S
O479       Zr506   2.332       .  S
C480       C1989   1.483       .  S
C481       C1634   1.482       .  S
C482        C901   1.490       .  S
C483       C1669   1.489       .  S
H484        O485   0.966       .  S
O485       Zr504   2.350       .  S
O485       Zr506   2.349       .  S
H486        O487   0.966       .  S
O487       Zr505   2.347       .  S
O487       Zr507   2.339       .  S
O488       Zr504   2.426       .  S
O488        C511   1.288       .  A
O489       Zr505   2.467       .  S
O489        C512   1.297       .  A
O490       Zr506   2.430       .  S
O490        C513   1.290       .  A
O491       Zr507   2.443       .  S
O491        C514   1.294       .  A
O492       Zr507   2.448       .  S
O492        C515   1.293       .  A
O493       Zr506   2.443       .  S
O493        C516   1.294       .  A
O494       Zr508   2.416       .  S
O494        C517   1.286       .  A
O495       Zr508   2.431       .  S
O495        C518   1.290       .  A
O496       Zr506   2.438       .  S
O496        C517   1.293       .  A
O497       Zr507   2.437       .  S
O497        C518   1.292       .  A
O498       Zr504   2.431       .  S
O498        C513   1.291       .  A
O499       Zr505   2.425       .  S
O499        C516   1.288       .  A
O500       Zr505   2.422       .  S
O500        C515   1.289       .  A
O501       Zr504   2.436       .  S
O501        C514   1.290       .  A
O502       Zr508   2.446       .  S
O502        C511   1.294       .  A
O503       Zr508   2.427       .  S
O503        C512   1.288       .  A
Zr504       O510   2.333       .  S
Zr504       O522   2.340       .  S
Zr505       O509   2.340       .  S
Zr505       O520   2.338       .  S
Zr506       O510   2.339       .  S
Zr506       O520   2.334       .  S
Zr507       O509   2.343       .  S
Zr507       O522   2.338       .  S
Zr508       O509   2.341       .  S
Zr508       O510   2.333       .  S
Zr508       O522   2.327       .  S
Zr508       O520   2.342       .  S
C511        C997   1.484       .  S
C512        C949   1.489       .  S
C513        C930   1.479       .  S
C514        C981   1.480       .  S
C515       C1858   1.471       .  S
C516       C1957   1.491       .  S
C517        C965   1.475       .  S
C518       C1829   1.471       .  S
H519        O520   0.965       .  S
H521        O522   0.965       .  S
C523        N524   1.357       .  A
C523        N528   1.356       .  A
C523        C853   1.476       .  S
N524        C525   1.358       .  A
C525        N526   1.360       .  A
N526        C527   1.356       .  A
C527        N528   1.354       .  A
C527        C866   1.472       .  S
C529        N530   1.357       .  A
C529        N534   1.353       .  A
C529        C837   1.474       .  S
N530        C531   1.359       .  A
C531        N532   1.361       .  A
C531        C599   1.467   1_554  S
N532        C533   1.358       .  A
C533        N534   1.354       .  A
C533        C821   1.480       .  S
O535       Zr571   2.443       .  S
O535        C546   1.293       .  A
O536       Zr570   2.428       .  S
O536        C547   1.289       .  A
O537       Zr543   2.436       .  S
O537        C548   1.289       .  A
O538       Zr543   2.417       .  S
O538        C549   1.287       .  A
O539       Zr573   2.454       .  S
O539        C549   1.296       .  A
O540       Zr572   2.441       .  S
O540        C548   1.295       .  A
O541       Zr543   2.451       .  S
O541        C547   1.294       .  A
O542       Zr543   2.436       .  S
O542        C546   1.291       .  A
Zr543       O544   2.337       .  S
Zr543       O545   2.336       .  S
Zr543       O553   2.351       .  S
Zr543       O551   2.339       .  S
O544       Zr570   2.342       .  S
O544       Zr573   2.342       .  S
O545       Zr571   2.337       .  S
O545       Zr572   2.334       .  S
C546       C2162   1.475       .  S
C547       C1506   1.472       .  S
C548       C1093   1.501       .  S
C549       C1538   1.481       .  S
H550        O551   0.964       .  S
O551       Zr570   2.347       .  S
O551       Zr572   2.341       .  S
H552        O553   0.966       .  S
O553       Zr571   2.344       .  S
O553       Zr573   2.344       .  S
O554       Zr570   2.440       .  S
O554        C577   1.292       .  A
O555       Zr571   2.443       .  S
O555        C578   1.292       .  A
O556       Zr572   2.432       .  S
O556        C579   1.290       .  A
O557       Zr573   2.432       .  S
O557        C580   1.290       .  A
O558       Zr573   2.435       .  S
O558        C581   1.291       .  A
O559       Zr572   2.432       .  S
O559        C582   1.291       .  A
O560       Zr574   2.425       .  S
O560        C583   1.289       .  A
O561       Zr574   2.419       .  S
O561        C584   1.286       .  A
O562       Zr572   2.449       .  S
O562        C583   1.293       .  A
O563       Zr573   2.451       .  S
O563        C584   1.297       .  A
O564       Zr570   2.436       .  S
O564        C579   1.292       .  A
O565       Zr571   2.432       .  S
O565        C582   1.290       .  A
O566       Zr571   2.434       .  S
O566        C581   1.292       .  A
O567       Zr570   2.436       .  S
O567        C580   1.292       .  A
O568       Zr574   2.437       .  S
O568        C577   1.290       .  A
O569       Zr574   2.425       .  S
O569        C578   1.291       .  A
Zr570       O576   2.337       .  S
Zr570       O588   2.335       .  S
Zr571       O575   2.337       .  S
Zr571       O586   2.341       .  S
Zr572       O576   2.339       .  S
Zr572       O586   2.335       .  S
Zr573       O575   2.337       .  S
Zr573       O588   2.340       .  S
Zr574       O575   2.337       .  S
Zr574       O576   2.335       .  S
Zr574       O588   2.332       .  S
Zr574       O586   2.334       .  S
C577        C789   1.475       .  S
C578        C834   1.477       .  S
C579       C1125   1.482       .  S
C580        C805   1.472       .  S
C581       C2098   1.479       .  S
C582       C2130   1.465       .  S
C583        C869   1.474       .  S
C584       C2069   1.490       .  S
H585        O586   0.965       .  S
H587        O588   0.965       .  S
C589        N590   1.356       .  A
C589        N594   1.354       .  A
C589       C1237   1.475       .  S
N590        C591   1.354       .  A
C591        N592   1.362       .  A
C591        C770   1.489       .  S
N592        C593   1.364       .  A
C593        N594   1.357       .  A
C595        N596   1.356       .  A
C595        N600   1.355       .  A
C595       C1250   1.478       .  S
N596        C597   1.356       .  A
C597        N598   1.359       .  A
C597        C754   1.485       .  S
N598        C599   1.362       .  A
C599        N600   1.358       .  A
C601        N602   1.356       .  A
C601        N606   1.360       .  A
C601        C738   1.482       .  S
N602        C603   1.355       .  A
C603        N604   1.359       .  A
C603        C786   1.474       .  S
N604        C605   1.362       .  A
C605        N606   1.361       .  A
C607        N608   1.357       .  A
C607        N612   1.353       .  A
C607        C802   1.474       .  S
N608        C609   1.360       .  A
C609        N610   1.362       .  A
N610        C611   1.358       .  A
C611        N612   1.356       .  A
C611        C722   1.483       .  S
O613       Zr649   2.422       .  S
O613        C624   1.287       .  A
O614       Zr648   2.460       .  S
O614        C625   1.296       .  A
O615       Zr621   2.444       .  S
O615        C626   1.294       .  A
O616       Zr621   2.442       .  S
O616        C627   1.292       .  A
O617       Zr651   2.442       .  S
O617        C627   1.293       .  A
O618       Zr650   2.446       .  S
O618        C626   1.291       .  A
O619       Zr621   2.427       .  S
O619        C625   1.288       .  A
O620       Zr621   2.442       .  S
O620        C624   1.294       .  A
Zr621       O622   2.344       .  S
Zr621       O623   2.334       .  S
Zr621       O631   2.334       .  S
Zr621       O629   2.337       .  S
O622       Zr648   2.341       .  S
O622       Zr651   2.339       .  S
O623       Zr649   2.342       .  S
O623       Zr650   2.337       .  S
C624       C2178   1.487       .  S
C625       C1698   1.492       .  S
C626       C1730   1.493       .  S
C627        C885   1.483       .  S
H628        O629   0.965       .  S
O629       Zr648   2.334       .  S
O629       Zr650   2.325       .  S
H630        O631   0.965       .  S
O631       Zr649   2.345       .  S
O631       Zr651   2.346       .  S
O632       Zr648   2.445       .  S
O632        C655   1.294       .  A
O633       Zr649   2.449       .  S
O633        C656   1.294       .  A
O634       Zr650   2.442       .  S
O634        C657   1.292       .  A
O635       Zr651   2.443       .  S
O635        C658   1.293       .  A
O636       Zr651   2.432       .  S
O636        C659   1.290       .  A
O637       Zr650   2.413       .  S
O637        C660   1.286       .  A
O638       Zr652   2.459       .  S
O638        C661   1.296       .  A
O639       Zr652   2.456       .  S
O639        C662   1.296       .  A
O640       Zr650   2.424       .  S
O640        C661   1.289       .  A
O641       Zr651   2.447       .  S
O641        C662   1.292       .  A
O642       Zr648   2.430       .  S
O642        C657   1.289       .  A
O643       Zr649   2.445       .  S
O643        C660   1.294       .  A
O644       Zr649   2.439       .  S
O644        C659   1.292       .  A
O645       Zr648   2.422       .  S
O645        C658   1.288       .  A
O646       Zr652   2.428       .  S
O646        C655   1.289       .  A
O647       Zr652   2.437       .  S
O647        C656   1.291       .  A
Zr648       O654   2.339       .  S
Zr648       O666   2.351       .  S
Zr649       O653   2.335       .  S
Zr649       O664   2.336       .  S
Zr650       O654   2.337       .  S
Zr650       O664   2.350       .  S
Zr651       O653   2.343       .  S
Zr651       O666   2.341       .  S
Zr652       O653   2.335       .  S
Zr652       O654   2.349       .  S
Zr652       O666   2.348       .  S
Zr652       O664   2.339       .  S
C655        C741   1.478       .  S
C656        C757   1.486       .  S
C657        C725   1.483       .  S
C658        C917   1.465       .  S
C659       C2146   1.469       .  S
C660       C1845   1.474       .  S
C661       C1813   1.482       .  S
C662        C773   1.494       .  S
H663        O664   0.965       .  S
H665        O666   0.966       .  S
O667       Zr703   2.433       .  S
O667        C678   1.291       .  A
O668       Zr702   2.440       .  S
O668        C679   1.291       .  A
O669       Zr675   2.456       .  S
O669        C680   1.296       .  A
O670       Zr675   2.452       .  S
O670        C681   1.294       .  A
O671       Zr705   2.438       .  S
O671        C681   1.291       .  A
O672       Zr704   2.438       .  S
O672        C680   1.291       .  A
O673       Zr675   2.443       .  S
O673        C679   1.294       .  A
O674       Zr675   2.421       .  S
O674        C678   1.289       .  A
Zr675       O676   2.333       .  S
Zr675       O677   2.338       .  S
Zr675       O685   2.350       .  S
Zr675       O683   2.341       .  S
O676       Zr702   2.336       .  S
O676       Zr705   2.337       .  S
O677       Zr703   2.338       .  S
O677       Zr704   2.330       .  S
C678       C1909   1.466       .  S
C679       C1493   1.492       .  S
C680       C1525   1.491       .  S
C681       C1442   1.479       .  S
H682        O683   0.966       .  S
O683       Zr702   2.348       .  S
O683       Zr704   2.350       .  S
H684        O685   0.966       .  S
O685       Zr703   2.334       .  S
O685       Zr705   2.334       .  S
O686       Zr702   2.438       .  S
O686        C709   1.293       .  A
O687       Zr703   2.436       .  S
O687        C710   1.290       .  A
O688       Zr704   2.430       .  S
O688        C711   1.289       .  A
O689       Zr705   2.419       .  S
O689        C712   1.288       .  A
O690       Zr705   2.429       .  S
O690        C713   1.288       .  A
O691       Zr704   2.446       .  S
O691        C714   1.295       .  A
O692       Zr706   2.443       .  S
O692        C715   1.292       .  A
O693       Zr706   2.421       .  S
O693        C716   1.290       .  A
O694       Zr704   2.436       .  S
O694        C715   1.291       .  A
O695       Zr705   2.433       .  S
O695        C716   1.290       .  A
O696       Zr702   2.440       .  S
O696        C711   1.293       .  A
O697       Zr703   2.415       .  S
O697        C714   1.285       .  A
O698       Zr703   2.439       .  S
O698        C713   1.292       .  A
O699       Zr702   2.441       .  S
O699        C712   1.292       .  A
O700       Zr706   2.435       .  S
O700        C709   1.290       .  A
O701       Zr706   2.438       .  S
O701        C710   1.293       .  A
Zr702       O708   2.339       .  S
Zr702       O720   2.340       .  S
Zr703       O707   2.332       .  S
Zr703       O718   2.340       .  S
Zr704       O708   2.340       .  S
Zr704       O718   2.334       .  S
Zr705       O707   2.337       .  S
Zr705       O720   2.343       .  S
Zr706       O707   2.344       .  S
Zr706       O708   2.334       .  S
Zr706       O720   2.345       .  S
Zr706       O718   2.337       .  S
C709       C1349   1.480       .  S
C710        C818   1.485       .  S
C711       C1314   1.467       .  S
C712       C1474   1.467       .  S
C713       C1877   1.477       .  S
C714       C1781   1.480       .  S
C715       C1746   1.476       .  S
C716        C850   1.470       .  S
H717        O718   0.965       .  S
H719        O720   0.966       .  S
C721        C722   1.403       .  A
C721        C726   1.402       .  A
C721        H728   1.083       .  S
C722        C723   1.419       .  A
C723        C724   1.410       .  A
C723        C730   1.518       .  S
C724        C725   1.406       .  A
C724        H729   1.083       .  S
C725        C726   1.420       .  A
C726        C727   1.522       .  S
C727        F731   1.385       .  S
C727        F732   1.382       .  S
C727        F733   1.382       .  S
C730        F734   1.382       .  S
C730        F735   1.383       .  S
C730        F736   1.385       .  S
C737        C738   1.404       .  A
C737        C742   1.409       .  A
C737        H744   1.083       .  S
C738        C739   1.419       .  A
C739        C740   1.403       .  A
C739        C746   1.520       .  S
C740        C741   1.401       .  A
C740        H745   1.084       .  S
C741        C742   1.419       .  A
C742        C743   1.521       .  S
C743        F747   1.385       .  S
C743        F748   1.383       .  S
C743        F749   1.383       .  S
C746        F750   1.382       .  S
C746        F751   1.383       .  S
C746        F752   1.386       .  S
C753        C754   1.403       .  A
C753        C758   1.403       .  A
C753        H760   1.084       .  S
C754        C755   1.419       .  A
C755        C756   1.412       .  A
C755        C762   1.518       .  S
C756        C757   1.406       .  A
C756        H761   1.083       .  S
C757        C758   1.419       .  A
C758        C759   1.519       .  S
C759        F763   1.385       .  S
C759        F764   1.380       .  S
C759        F765   1.382       .  S
C762        F766   1.383       .  S
C762        F767   1.384       .  S
C762        F768   1.384       .  S
C769        C770   1.403       .  A
C769        C774   1.411       .  A
C769        H776   1.083       .  S
C770        C771   1.421       .  A
C771        C772   1.408       .  A
C771        C778   1.520       .  S
C772        C773   1.404       .  A
C772        H777   1.084       .  S
C773        C774   1.422       .  A
C774        C775   1.515       .  S
C775        F779   1.385       .  S
C775        F780   1.379       .  S
C775        F781   1.382       .  S
C778        F782   1.382       .  S
C778        F783   1.384       .  S
C778        F784   1.385       .  S
C785        C786   1.402       .  A
C785        C790   1.409       .  A
C785        H792   1.083       .  S
C786        C787   1.415       .  A
C787        C788   1.405       .  A
C787        C794   1.517       .  S
C788        C789   1.401       .  A
C788        H793   1.083       .  S
C789        C790   1.417       .  A
C790        C791   1.518       .  S
C791        F795   1.385       .  S
C791        F796   1.382       .  S
C791        F797   1.381       .  S
C794        F798   1.382       .  S
C794        F799   1.383       .  S
C794        F800   1.385       .  S
C801        C802   1.403       .  A
C801        C806   1.407       .  A
C801        H808   1.083       .  S
C802        C803   1.417       .  A
C803        C804   1.403       .  A
C803        C810   1.520       .  S
C804        C805   1.401       .  A
C804        H809   1.083       .  S
C805        C806   1.416       .  A
C806        C807   1.518       .  S
C807        F811   1.384       .  S
C807        F812   1.382       .  S
C807        F813   1.382       .  S
C810        F814   1.382       .  S
C810        F815   1.384       .  S
C810        F816   1.385       .  S
C817        C818   1.404       .  A
C817        C822   1.403       .  A
C817        H824   1.084       .  S
C818        C819   1.422       .  A
C819        C820   1.409       .  A
C819        C826   1.520       .  S
C820        C821   1.403       .  A
C820        H825   1.083       .  S
C821        C822   1.418       .  A
C822        C823   1.521       .  S
C823        F827   1.385       .  S
C823        F828   1.383       .  S
C823        F829   1.384       .  S
C826        F830   1.383       .  S
C826        F831   1.383       .  S
C826        F832   1.384       .  S
C833        C834   1.403       .  A
C833        C838   1.400       .  A
C833        H840   1.084       .  S
C834        C835   1.417       .  A
C835        C836   1.409       .  A
C835        C842   1.518       .  S
C836        C837   1.405       .  A
C836        H841   1.083       .  S
C837        C838   1.417       .  A
C838        C839   1.522       .  S
C839        F843   1.385       .  S
C839        F844   1.382       .  S
C839        F845   1.383       .  S
C842        F846   1.385       .  S
C842        F847   1.382       .  S
C842        F848   1.382       .  S
C849        C850   1.400       .  A
C849        C854   1.398       .  A
C849        H856   1.084       .  S
C850        C851   1.416       .  A
C851        C852   1.409       .  A
C851        C858   1.521       .  S
C852        C853   1.407       .  A
C852        H857   1.083       .  S
C853        C854   1.418       .  A
C854        C855   1.521       .  S
C855        F859   1.385       .  S
C855        F860   1.382       .  S
C855        F861   1.383       .  S
C858        F862   1.382       .  S
C858        F863   1.382       .  S
C858        F864   1.384       .  S
C865        C866   1.399       .  A
C865        C870   1.404       .  A
C865        H872   1.084       .  S
C866        C867   1.416       .  A
C867        C868   1.409       .  A
C867        C874   1.517       .  S
C868        C869   1.402       .  A
C868        H873   1.083       .  S
C869        C870   1.417       .  A
C870        C871   1.518       .  S
C871        F875   1.384       .  S
C871        F876   1.384       .  S
C871        F877   1.381       .  S
C874        F878   1.382       .  S
C874        F879   1.383       .  S
C874        F880   1.385       .  S
C881        C882   1.400       .  A
C881        C886   1.408       .  A
C881        H888   1.083       .  S
C882        C883   1.417       .  A
C883        C884   1.406       .  A
C883        C890   1.520       .  S
C884        C885   1.403       .  A
C884        H889   1.081       .  S
C885        C886   1.419       .  A
C886        C887   1.516       .  S
C887        F891   1.384       .  S
C887        F892   1.382       .  S
C887        F893   1.384       .  S
C890        F894   1.384       .  S
C890        F895   1.382       .  S
C890        F896   1.385       .  S
C897        C898   1.405       .  A
C897        C902   1.407       .  A
C897        H904   1.084       .  S
C898        C899   1.418       .  A
C899        C900   1.407       .  A
C899        C906   1.518   1_655  S
C900        C901   1.404       .  A
C900        H905   1.079       .  S
C901        C902   1.422       .  A
C902        C903   1.520       .  S
C903        F907   1.386       .  S
C903        F908   1.383       .  S
C903        F909   1.382       .  S
C906        F910   1.383       .  S
C906        F911   1.380       .  S
C906        F912   1.384       .  S
C913        C914   1.398       .  A
C913        C918   1.402       .  A
C913        H920   1.084       .  S
C914        C915   1.411       .  A
C915        C916   1.401       .  A
C915        C922   1.518       .  S
C916        C917   1.399       .  A
C916        H921   1.079       .  S
C917        C918   1.414       .  A
C918        C919   1.512       .  S
C919        F923   1.385       .  S
C919        F924   1.377       .  S
C919        F925   1.381       .  S
C922        F926   1.383       .  S
C922        F927   1.382       .  S
C922        F928   1.384       .  S
C929        C930   1.405       .  A
C929        C934   1.406       .  A
C929        H936   1.083       .  S
C930        C931   1.419       .  A
C931        C932   1.401       .  A
C931        C938   1.520       .  S
C932        C933   1.403       .  A
C932        H937   1.083       .  S
C933        C934   1.417       .  A
C934        C935   1.518       .  S
C935        F939   1.385       .  S
C935        F940   1.382       .  S
C935        F941   1.383       .  S
C938        F942   1.385       .  S
C938        F943   1.380       .  S
C938        F944   1.383       .  S
C945        C946   1.400       .  A
C945        C950   1.402       .  A
C945        H952   1.084       .  S
C946        C947   1.420       .  A
C947        C948   1.413       .  A
C947        C954   1.517       .  S
C948        C949   1.406       .  A
C948        H953   1.083       .  S
C949        C950   1.424       .  A
C950        C951   1.521       .  S
C951        F955   1.386       .  S
C951        F956   1.382       .  S
C951        F957   1.382       .  S
C954        F958   1.382       .  S
C954        F959   1.383       .  S
C954        F960   1.384       .  S
C961        C962   1.402       .  A
C961        C966   1.400       .  A
C961        H968   1.084       .  S
C962        C963   1.415       .  A
C963        C964   1.405       .  A
C963        C970   1.518       .  S
C964        C965   1.404       .  A
C964        H969   1.083       .  S
C965        C966   1.420       .  A
C966        C967   1.523       .  S
C967        F971   1.385       .  S
C967        F972   1.380       .  S
C967        F973   1.382       .  S
C970        F974   1.382       .  S
C970        F975   1.383       .  S
C970        F976   1.383       .  S
C977        C978   1.405       .  A
C977        C982   1.407       .  A
C977        H984   1.083       .  S
C978        C979   1.418       .  A
C979        C980   1.405       .  A
C979        C986   1.518       .  S
C980        C981   1.402       .  A
C980        H985   1.083       .  S
C981        C982   1.420       .  A
C982        C983   1.522       .  S
C983        F987   1.385       .  S
C983        F988   1.383       .  S
C983        F989   1.382       .  S
C986        F990   1.381       .  S
C986        F991   1.383       .  S
C986        F992   1.385       .  S
C993        C994   1.403       .  A
C993        C998   1.403       .  A
C993       H1000   1.084       .  S
C994        C995   1.418       .  A
C995        C996   1.409       .  A
C995       C1002   1.519       .  S
C996        C997   1.406       .  A
C996       H1001   1.083       .  S
C997        C998   1.421       .  A
C998        C999   1.522       .  S
C999       F1003   1.385       .  S
C999       F1004   1.382       .  S
C999       F1005   1.382       .  S
C1002      F1006   1.383       .  S
C1002      F1007   1.383       .  S
C1002      F1008   1.385       .  S
C1009      C1010   1.406       .  A
C1009      C1014   1.412       .  A
C1009      H1016   1.083       .  S
C1010      C1011   1.420       .  A
C1011      C1012   1.404       .  A
C1011      C1018   1.521       .  S
C1012      C1013   1.406       .  A
C1012      H1017   1.083       .  S
C1013      C1014   1.422       .  A
C1014      C1015   1.515       .  S
C1015      F1019   1.384       .  S
C1015      F1020   1.383       .  S
C1015      F1021   1.382       .  S
C1018      F1022   1.382       .  S
C1018      F1023   1.383       .  S
C1018      F1024   1.384       .  S
C1025      C1026   1.403       .  A
C1025      C1030   1.410       .  A
C1025      H1032   1.084       .  S
C1026      C1027   1.414       .  A
C1027      C1028   1.401       .  A
C1027      C1034   1.518       .  S
C1028      C1029   1.400       .  A
C1028      H1033   1.084       .  S
C1029      C1030   1.416       .  A
C1030      C1031   1.517       .  S
C1031      F1035   1.385       .  S
C1031      F1036   1.383       .  S
C1031      F1037   1.383       .  S
C1034      F1038   1.381       .  S
C1034      F1039   1.384       .  S
C1034      F1040   1.384       .  S
C1041      C1042   1.402       .  A
C1041      C1046   1.403       .  A
C1041      H1048   1.084       .  S
C1042      C1043   1.414       .  A
C1043      C1044   1.404       .  A
C1043      C1050   1.518       .  S
C1044      C1045   1.400       .  A
C1044      H1049   1.084       .  S
C1045      C1046   1.414       .  A
C1046      C1047   1.520       .  S
C1047      F1051   1.384       .  S
C1047      F1052   1.382       .  S
C1047      F1053   1.384       .  S
C1050      F1054   1.384       .  S
C1050      F1055   1.383       .  S
C1050      F1056   1.381       .  S
C1057      C1058   1.402       .  A
C1057      C1062   1.403       .  A
C1057      H1064   1.083       .  S
C1058      C1059   1.419       .  A
C1059      C1060   1.407       .  A
C1059      C1066   1.520       .  S
C1060      C1061   1.405       .  A
C1060      H1065   1.083       .  S
C1061      C1062   1.421       .  A
C1062      C1063   1.521       .  S
C1063      F1067   1.385       .  S
C1063      F1068   1.382       .  S
C1063      F1069   1.383       .  S
C1066      F1070   1.383       .  S
C1066      F1071   1.382       .  S
C1066      F1072   1.385       .  S
C1073      C1074   1.399       .  A
C1073      C1078   1.405       .  A
C1073      H1080   1.083       .  S
C1074      C1075   1.414       .  A
C1075      C1076   1.404       .  A
C1075      C1082   1.520       .  S
C1076      C1077   1.403       .  A
C1076      H1081   1.084       .  S
C1077      C1078   1.419       .  A
C1078      C1079   1.520       .  S
C1079      F1083   1.384       .  S
C1079      F1084   1.382       .  S
C1079      F1085   1.382       .  S
C1082      F1086   1.384       .  S
C1082      F1087   1.381       .  S
C1082      F1088   1.384       .  S
C1089      C1090   1.405       .  A
C1089      C1094   1.413       .  A
C1089      H1096   1.082   1_655  S
C1090      C1091   1.424       .  A
C1091      C1092   1.400       .  A
C1091      C1098   1.525       .  S
C1092      C1093   1.407       .  A
C1092      H1097   1.082       .  S
C1093      C1094   1.428       .  A
C1094      C1095   1.521       .  S
C1095      F1099   1.385   1_655  S
C1095      F1100   1.384       .  S
C1095      F1101   1.379       .  S
C1098      F1102   1.384       .  S
C1098      F1103   1.382       .  S
C1098      F1104   1.385       .  S
C1105      C1106   1.402       .  A
C1105      C1110   1.405       .  A
C1105      H1112   1.083       .  S
C1106      C1107   1.412       .  A
C1107      C1108   1.399       .  A
C1107      C1114   1.519       .  S
C1108      C1109   1.404       .  A
C1108      H1113   1.084       .  S
C1109      C1110   1.418       .  A
C1110      C1111   1.518       .  S
C1111      F1115   1.385       .  S
C1111      F1116   1.382       .  S
C1111      F1117   1.381       .  S
C1114      F1118   1.384       .  S
C1114      F1119   1.382       .  S
C1114      F1120   1.385       .  S
C1121      C1122   1.406       .  A
C1121      C1126   1.403       .  A
C1121      H1128   1.083       .  S
C1122      C1123   1.421       .  A
C1123      C1124   1.409       .  A
C1123      C1130   1.520       .  S
C1124      C1125   1.406       .  A
C1124      H1129   1.083       .  S
C1125      C1126   1.419       .  A
C1126      C1127   1.524       .  S
C1127      F1131   1.385       .  S
C1127      F1132   1.383       .  S
C1127      F1133   1.382       .  S
C1130      F1134   1.383       .  S
C1130      F1135   1.383       .  S
C1130      F1136   1.385       .  S
C1137      C1138   1.404       .  A
C1137      C1142   1.405       .  A
C1137      H1144   1.084       .  S
C1138      C1139   1.421       .  A
C1139      C1140   1.409       .  A
C1139      C1146   1.514       .  S
C1140      C1141   1.402       .  A
C1140      H1145   1.083       .  S
C1141      C1142   1.420       .  A
C1142      C1143   1.520       .  S
C1143      F1147   1.385       .  S
C1143      F1148   1.383       .  S
C1143      F1149   1.384       .  S
C1146      F1150   1.381       .  S
C1146      F1151   1.382       .  S
C1146      F1152   1.385       .  S
C1153      C1154   1.408       .  A
C1153      C1158   1.412       .  A
C1153      H1160   1.082       .  S
C1154      C1155   1.427       .  A
C1155      C1156   1.404       .  A
C1155      C1162   1.525       .  S
C1156      C1157   1.405       .  A
C1156      H1161   1.082       .  S
C1157      C1158   1.423       .  A
C1158      C1159   1.520       .  S
C1159      F1163   1.384       .  S
C1159      F1164   1.383       .  S
C1159      F1165   1.383       .  S
C1162      F1166   1.381       .  S
C1162      F1167   1.383       .  S
C1162      F1168   1.385       .  S
C1169      C1170   1.404       .  A
C1169      C1174   1.409       .  A
C1169      H1176   1.083       .  S
C1170      C1171   1.419       .  A
C1171      C1172   1.404       .  A
C1171      C1178   1.523       .  S
C1172      C1173   1.404       .  A
C1172      H1177   1.083       .  S
C1173      C1174   1.418       .  A
C1174      C1175   1.518       .  S
C1175      F1179   1.385       .  S
C1175      F1180   1.383       .  S
C1175      F1181   1.379       .  S
C1178      F1182   1.382       .  S
C1178      F1183   1.381       .  S
C1178      F1184   1.384       .  S
C1185      C1186   1.404       .  A
C1185      C1190   1.409       .  A
C1185      H1192   1.083       .  S
C1186      C1187   1.412       .  A
C1187      C1188   1.395       .  A
C1187      C1194   1.520       .  S
C1188      C1189   1.401       .  A
C1188      H1193   1.079       .  S
C1189      C1190   1.420       .  A
C1190      C1191   1.520       .  S
C1191      F1195   1.385       .  S
C1191      F1196   1.383       .  S
C1191      F1197   1.382       .  S
C1194      F1198   1.382       .  S
C1194      F1199   1.383       .  S
C1194      F1200   1.383       .  S
C1201      C1202   1.402       .  A
C1201      C1206   1.407       .  A
C1201      H1208   1.083       .  S
C1202      C1203   1.415       .  A
C1203      C1204   1.404       .  A
C1203      C1210   1.518       .  S
C1204      C1205   1.402       .  A
C1204      H1209   1.084       .  S
C1205      C1206   1.417       .  A
C1206      C1207   1.520       .  S
C1207      F1211   1.384       .  S
C1207      F1212   1.383       .  S
C1207      F1213   1.382       .  S
C1210      F1214   1.382       .  S
C1210      F1215   1.384       .  S
C1210      F1216   1.384       .  S
C1217      C1218   1.403       .  A
C1217      C1222   1.409       .  A
C1217      H1224   1.083       .  S
C1218      C1219   1.419       .  A
C1219      C1220   1.405       .  A
C1219      C1226   1.519       .  S
C1220      C1221   1.400       .  A
C1220      H1225   1.083       .  S
C1221      C1222   1.417       .  A
C1222      C1223   1.519       .  S
C1223      F1227   1.384       .  S
C1223      F1228   1.384       .  S
C1223      F1229   1.382       .  S
C1226      F1230   1.382       .  S
C1226      F1231   1.383       .  S
C1226      F1232   1.385       .  S
C1233      C1234   1.405       .  A
C1233      C1238   1.409       .  A
C1233      H1240   1.078       .  S
C1234      C1235   1.419       .  A
C1235      C1236   1.399       .  A
C1235      C1242   1.518       .  S
C1236      C1237   1.399       .  A
C1236      H1241   1.082       .  S
C1237      C1238   1.417       .  A
C1238      C1239   1.520       .  S
C1239      F1243   1.381       .  S
C1239      F1244   1.383       .  S
C1239      F1245   1.382       .  S
C1242      F1246   1.382       .  S
C1242      F1247   1.382       .  S
C1242      F1248   1.385       .  S
C1249      C1250   1.404       .  A
C1249      C1254   1.402       .  A
C1249      H1256   1.084       .  S
C1250      C1251   1.419       .  A
C1251      C1252   1.407       .  A
C1251      C1258   1.521       .  S
C1252      C1253   1.406       .  A
C1252      H1257   1.083       .  S
C1253      C1254   1.414       .  A
C1254      C1255   1.519       .  S
C1255      F1259   1.384       .  S
C1255      F1260   1.382       .  S
C1255      F1261   1.384       .  S
C1258      F1262   1.383       .  S
C1258      F1263   1.383       .  S
C1258      F1264   1.385       .  S
C1265      C1266   1.406       .  A
C1265      C1270   1.412       .  A
C1265      H1272   1.083       .  S
C1266      C1267   1.416       .  A
C1267      C1268   1.403       .  A
C1267      C1274   1.515       .  S
C1268      C1269   1.399       .  A
C1268      H1273   1.084       .  S
C1269      C1270   1.415       .  A
C1270      C1271   1.517       .  S
C1271      F1275   1.383       .  S
C1271      F1276   1.384       .  S
C1271      F1277   1.383       .  S
C1274      F1278   1.382       .  S
C1274      F1279   1.383       .  S
C1274      F1280   1.383       .  S
C1281      C1282   1.405       .  A
C1281      C1286   1.409       .  A
C1281      H1288   1.083       .  S
C1282      C1283   1.417       .  A
C1283      C1284   1.403       .  A
C1283      C1290   1.519       .  S
C1284      C1285   1.403       .  A
C1284      H1289   1.084       .  S
C1285      C1286   1.419       .  A
C1286      C1287   1.518       .  S
C1287      F1291   1.385       .  S
C1287      F1292   1.383       .  S
C1287      F1293   1.383       .  S
C1290      F1294   1.382       .  S
C1290      F1295   1.382       .  S
C1290      F1296   1.385       .  S
C1297      C1298   1.402       .  A
C1297      C1302   1.404       .  A
C1297      H1304   1.083       .  S
C1298      C1299   1.415       .  A
C1299      C1300   1.406       .  A
C1299      C1306   1.519       .  S
C1300      C1301   1.404       .  A
C1300      H1305   1.083       .  S
C1301      C1302   1.418       .  A
C1302      C1303   1.520       .  S
C1303      F1307   1.385       .  S
C1303      F1308   1.382       .  S
C1303      F1309   1.383       .  S
C1306      F1310   1.384       .  S
C1306      F1311   1.382       .  S
C1306      F1312   1.385       .  S
C1313      C1314   1.397       .  A
C1313      C1318   1.401       .  A
C1313      H1320   1.078       .  S
C1314      C1315   1.413       .  A
C1315      C1316   1.408       .  A
C1315      C1322   1.517       .  S
C1316      C1317   1.403       .  A
C1316      H1321   1.083       .  S
C1317      C1318   1.414       .  A
C1318      C1319   1.518       .  S
C1319      F1323   1.385       .  S
C1319      F1324   1.383       .  S
C1319      F1325   1.383       .  S
C1322      F1326   1.381       .  S
C1322      F1327   1.382       .  S
C1322      F1328   1.384       .  S
C1329      C1330   1.409       .  A
C1329      C1334   1.410       .  A
C1329      H1336   1.081       .  S
C1330      C1331   1.424       .  A
C1331      C1332   1.404       .  A
C1331      C1338   1.523       .  S
C1332      C1333   1.405       .  A
C1332      H1337   1.083       .  S
C1333      C1334   1.418       .  A
C1334      C1335   1.519       .  S
C1335      F1339   1.384       .  S
C1335      F1340   1.383       .  S
C1335      F1341   1.383       .  S
C1338      F1342   1.380       .  S
C1338      F1343   1.383       .  S
C1338      F1344   1.385       .  S
C1345      C1346   1.404       .  A
C1345      C1350   1.410       .  A
C1345      H1352   1.083       .  S
C1346      C1347   1.421       .  A
C1347      C1348   1.400       .  A
C1347      C1354   1.522       .  S
C1348      C1349   1.400       .  A
C1348      H1353   1.082       .  S
C1349      C1350   1.419       .  A
C1350      C1351   1.518       .  S
C1351      F1355   1.385       .  S
C1351      F1356   1.381       .  S
C1351      F1357   1.382       .  S
C1354      F1358   1.383       .  S
C1354      F1359   1.383       .  S
C1354      F1360   1.386       .  S
C1361      C1362   1.406       .  A
C1361      C1366   1.403       .  A
C1361      H1368   1.083       .  S
C1362      C1363   1.423       .  A
C1363      C1364   1.411       .  A
C1363      C1370   1.520       .  S
C1364      C1365   1.406       .  A
C1364      H1369   1.080       .  S
C1365      C1366   1.420       .  A
C1366      C1367   1.523       .  S
C1367      F1371   1.385       .  S
C1367      F1372   1.382       .  S
C1367      F1373   1.383       .  S
C1370      F1374   1.383       .  S
C1370      F1375   1.383       .  S
C1370      F1376   1.383       .  S
C1377      C1378   1.402       .  A
C1377      C1382   1.409       .  A
C1377      H1384   1.083       .  S
C1378      C1379   1.418       .  A
C1379      C1380   1.403       .  A
C1379      C1386   1.521       .  S
C1380      C1381   1.403       .  A
C1380      H1385   1.084       .  S
C1381      C1382   1.423       .  A
C1382      C1383   1.520       .  S
C1383      F1387   1.386       .  S
C1383      F1388   1.382       .  S
C1383      F1389   1.383       .  S
C1386      F1390   1.384       .  S
C1386      F1391   1.382       .  S
C1386      F1392   1.384       .  S
C1393      C1394   1.403       .  A
C1393      C1398   1.403       .  A
C1393      H1400   1.082       .  S
C1394      C1395   1.418       .  A
C1395      C1396   1.400       .  A
C1395      C1402   1.518       .  S
C1396      C1397   1.399       .  A
C1396      H1401   1.084       .  S
C1397      C1398   1.412       .  A
C1398      C1399   1.518       .  S
C1399      F1403   1.385       .  S
C1399      F1404   1.379       .  S
C1399      F1405   1.383       .  S
C1402      F1406   1.385       .  S
C1402      F1407   1.381       .  S
C1402      F1408   1.382       .  S
C1409      C1410   1.407       .  A
C1409      C1414   1.411       .  A
C1409      H1416   1.083       .  S
C1410      C1411   1.421       .  A
C1411      C1412   1.404       .  A
C1411      C1418   1.522       .  S
C1412      C1413   1.403       .  A
C1412      H1417   1.083       .  S
C1413      C1414   1.419       .  A
C1414      C1415   1.519       .  S
C1415      F1419   1.384       .  S
C1415      F1420   1.383       .  S
C1415      F1421   1.384       .  S
C1418      F1422   1.381       .  S
C1418      F1423   1.383       .  S
C1418      F1424   1.384       .  S
C1425      C1426   1.403       .  A
C1425      C1430   1.404       .  A
C1425      H1432   1.084       .  S
C1426      C1427   1.419       .  A
C1427      C1428   1.409       .  A
C1427      C1434   1.519       .  S
C1428      C1429   1.403       .  A
C1428      H1433   1.077       .  S
C1429      C1430   1.419       .  A
C1430      C1431   1.519       .  S
C1431      F1435   1.385       .  S
C1431      F1436   1.383       .  S
C1431      F1437   1.382       .  S
C1434      F1438   1.383       .  S
C1434      F1439   1.383       .  S
C1434      F1440   1.385       .  S
C1441      C1442   1.404       .  A
C1441      C1446   1.408       .  A
C1441      H1448   1.083       .  S
C1442      C1443   1.418       .  A
C1443      C1444   1.407       .  A
C1443      C1450   1.519       .  S
C1444      C1445   1.401       .  A
C1444      H1449   1.083       .  S
C1445      C1446   1.415       .  A
C1446      C1447   1.518       .  S
C1447      F1451   1.383       .  S
C1447      F1452   1.383       .  S
C1447      F1453   1.384       .  S
C1450      F1454   1.383       .  S
C1450      F1455   1.380       .  S
C1450      F1456   1.385       .  S
C1457      C1458   1.401       .  A
C1457      C1462   1.401       .  A
C1457      H1464   1.084       .  S
C1458      C1459   1.416       .  A
C1459      C1460   1.407       .  A
C1459      C1466   1.519       .  S
C1460      C1461   1.406       .  A
C1460      H1465   1.083       .  S
C1461      C1462   1.415       .  A
C1462      C1463   1.517       .  S
C1463      F1467   1.384       .  S
C1463      F1468   1.382       .  S
C1463      F1469   1.383       .  S
C1466      F1470   1.382       .  S
C1466      F1471   1.384       .  S
C1466      F1472   1.385       .  S
C1473      C1474   1.400       .  A
C1473      C1478   1.405       .  A
C1473      H1480   1.083       .  S
C1474      C1475   1.416       .  A
C1475      C1476   1.401       .  A
C1475      C1482   1.517       .  S
C1476      C1477   1.399       .  A
C1476      H1481   1.084       .  S
C1477      C1478   1.416       .  A
C1478      C1479   1.518       .  S
C1479      F1483   1.385       .  S
C1479      F1484   1.382       .  S
C1479      F1485   1.383       .  S
C1482      F1486   1.384       .  S
C1482      F1487   1.381       .  S
C1482      F1488   1.385       .  S
C1489      C1490   1.405       .  A
C1489      C1494   1.410       .  A
C1489      H1496   1.083       .  S
C1490      C1491   1.422       .  A
C1491      C1492   1.405       .  A
C1491      C1498   1.520       .  S
C1492      C1493   1.404       .  A
C1492      H1497   1.083       .  S
C1493      C1494   1.422       .  A
C1494      C1495   1.516       .  S
C1495      F1499   1.385       .  S
C1495      F1500   1.383       .  S
C1495      F1501   1.377       .  S
C1498      F1502   1.384       .  S
C1498      F1503   1.382       .  S
C1498      F1504   1.383       .  S
C1505      C1506   1.402       .  A
C1505      C1510   1.408       .  A
C1505      H1512   1.083       .  S
C1506      C1507   1.412       .  A
C1507      C1508   1.405       .  A
C1507      C1514   1.516       .  S
C1508      C1509   1.402   1_655  A
C1508      H1513   1.084   1_655  S
C1509      C1510   1.416   1_455  A
C1510      C1511   1.517       .  S
C1511      F1515   1.385       .  S
C1511      F1516   1.383       .  S
C1511      F1517   1.383   1_655  S
C1514      F1518   1.378       .  S
C1514      F1519   1.383       .  S
C1514      F1520   1.384       .  S
C1521      C1522   1.404       .  A
C1521      C1526   1.413       .  A
C1521      H1528   1.083       .  S
C1522      C1523   1.419       .  A
C1523      C1524   1.406       .  A
C1523      C1530   1.519       .  S
C1524      C1525   1.404       .  A
C1524      H1529   1.084       .  S
C1525      C1526   1.423       .  A
C1526      C1527   1.519       .  S
C1527      F1531   1.385       .  S
C1527      F1532   1.383       .  S
C1527      F1533   1.383       .  S
C1530      F1534   1.385       .  S
C1530      F1535   1.382       .  S
C1530      F1536   1.384       .  S
C1537      C1538   1.404       .  A
C1537      C1542   1.409       .  A
C1537      H1544   1.083       .  S
C1538      C1539   1.421       .  A
C1539      C1540   1.401   1_655  A
C1539      C1546   1.521       .  S
C1540      C1541   1.402       .  A
C1540      H1545   1.083       .  S
C1541      C1542   1.420   1_455  A
C1542      C1543   1.518       .  S
C1543      F1547   1.385       .  S
C1543      F1548   1.380       .  S
C1543      F1549   1.383       .  S
C1546      F1550   1.380       .  S
C1546      F1551   1.382       .  S
C1546      F1552   1.385   1_655  S
C1553      C1554   1.402       .  A
C1553      C1558   1.404   1_455  A
C1553      H1560   1.083       .  S
C1554      C1555   1.416   1_455  A
C1555      C1556   1.406       .  A
C1555      C1562   1.518       .  S
C1556      C1557   1.403       .  A
C1556      H1561   1.083       .  S
C1557      C1558   1.418       .  A
C1558      C1559   1.520       .  S
C1559      F1563   1.385       .  S
C1559      F1564   1.382       .  S
C1559      F1565   1.381       .  S
C1562      F1566   1.383   1_655  S
C1562      F1567   1.382       .  S
C1562      F1568   1.385       .  S
C1569      C1570   1.405       .  A
C1569      C1574   1.413       .  A
C1569      H1576   1.083       .  S
C1570      C1571   1.422       .  A
C1571      C1572   1.405       .  A
C1571      C1578   1.520       .  S
C1572      C1573   1.402       .  A
C1572      H1577   1.084       .  S
C1573      C1574   1.419       .  A
C1574      C1575   1.520       .  S
C1575      F1579   1.384       .  S
C1575      F1580   1.384       .  S
C1575      F1581   1.383       .  S
C1578      F1582   1.383       .  S
C1578      F1583   1.384       .  S
C1578      F1584   1.385       .  S
C1585      C1586   1.402       .  A
C1585      C1590   1.404   1_455  A
C1585      H1592   1.084       .  S
C1586      C1587   1.416   1_455  A
C1587      C1588   1.408       .  A
C1587      C1594   1.517       .  S
C1588      C1589   1.405       .  A
C1588      H1593   1.083       .  S
C1589      C1590   1.421       .  A
C1590      C1591   1.521       .  S
C1591      F1595   1.385   1_655  S
C1591      F1596   1.381       .  S
C1591      F1597   1.383       .  S
C1594      F1598   1.379       .  S
C1594      F1599   1.383   1_655  S
C1594      F1600   1.384       .  S
C1601      C1602   1.404       .  A
C1601      C1606   1.405       .  A
C1601      H1608   1.083       .  S
C1602      C1603   1.419       .  A
C1603      C1604   1.402       .  A
C1603      C1610   1.520       .  S
C1604      C1605   1.401       .  A
C1604      H1609   1.084       .  S
C1605      C1606   1.415       .  A
C1606      C1607   1.520       .  S
C1607      F1611   1.384       .  S
C1607      F1612   1.384       .  S
C1607      F1613   1.382       .  S
C1610      F1614   1.383       .  S
C1610      F1615   1.383       .  S
C1610      F1616   1.385       .  S
C1617      C1618   1.404       .  A
C1617      C1622   1.405       .  A
C1617      H1624   1.083       .  S
C1618      C1619   1.421       .  A
C1619      C1620   1.409       .  A
C1619      C1626   1.520       .  S
C1620      C1621   1.405       .  A
C1620      H1625   1.083       .  S
C1621      C1622   1.422       .  A
C1622      C1623   1.521       .  S
C1623      F1627   1.385       .  S
C1623      F1628   1.383       .  S
C1623      F1629   1.381       .  S
C1626      F1630   1.384       .  S
C1626      F1631   1.383       .  S
C1626      F1632   1.384       .  S
C1633      C1634   1.403       .  A
C1633      C1638   1.409       .  A
C1633      H1640   1.082       .  S
C1634      C1635   1.413       .  A
C1635      C1636   1.409       .  A
C1635      C1642   1.515       .  S
C1636      C1637   1.403   1_655  A
C1636      H1641   1.083   1_655  S
C1637      C1638   1.415   1_455  A
C1638      C1639   1.518       .  S
C1639      F1643   1.385       .  S
C1639      F1644   1.381       .  S
C1639      F1645   1.384   1_655  S
C1642      F1646   1.383       .  S
C1642      F1647   1.379       .  S
C1642      F1648   1.384       .  S
C1649      C1650   1.400       .  A
C1649      C1654   1.407       .  A
C1649      H1656   1.083       .  S
C1650      C1651   1.414       .  A
C1651      C1652   1.408       .  A
C1651      C1658   1.516       .  S
C1652      C1653   1.402       .  A
C1652      H1657   1.082       .  S
C1653      C1654   1.418       .  A
C1654      C1655   1.517       .  S
C1655      F1659   1.385       .  S
C1655      F1660   1.383       .  S
C1655      F1661   1.381       .  S
C1658      F1662   1.383       .  S
C1658      F1663   1.383       .  S
C1658      F1664   1.384       .  S
C1665      C1666   1.406       .  A
C1665      C1670   1.400   1_455  A
C1665      H1672   1.083       .  S
C1666      C1667   1.423   1_455  A
C1667      C1668   1.410       .  A
C1667      C1674   1.520       .  S
C1668      C1669   1.404       .  A
C1668      H1673   1.076       .  S
C1669      C1670   1.416       .  A
C1670      C1671   1.516       .  S
C1671      F1675   1.385   1_655  S
C1671      F1676   1.379       .  S
C1671      F1677   1.382       .  S
C1674      F1678   1.383       .  S
C1674      F1679   1.383       .  S
C1674      F1680   1.385       .  S
C1681      C1682   1.406       .  A
C1681      C1686   1.401       .  A
C1681      H1688   1.083       .  S
C1682      C1683   1.421       .  A
C1683      C1684   1.413       .  A
C1683      C1690   1.518       .  S
C1684      C1685   1.407       .  A
C1684      H1689   1.083       .  S
C1685      C1686   1.420       .  A
C1686      C1687   1.522       .  S
C1687      F1691   1.385       .  S
C1687      F1692   1.383       .  S
C1687      F1693   1.381       .  S
C1690      F1694   1.383       .  S
C1690      F1695   1.382       .  S
C1690      F1696   1.385       .  S
C1697      C1698   1.405       .  A
C1697      C1702   1.410       .  A
C1697      H1704   1.077       .  S
C1698      C1699   1.423       .  A
C1699      C1700   1.402   1_655  A
C1699      C1706   1.521       .  S
C1700      C1701   1.404       .  A
C1700      H1705   1.083       .  S
C1701      C1702   1.420   1_455  A
C1702      C1703   1.518       .  S
C1703      F1707   1.385       .  S
C1703      F1708   1.383       .  S
C1703      F1709   1.383       .  S
C1706      F1710   1.380       .  S
C1706      F1711   1.383       .  S
C1706      F1712   1.385   1_655  S
C1713      C1714   1.400       .  A
C1713      C1718   1.402       .  A
C1713      H1720   1.084       .  S
C1714      C1715   1.415       .  A
C1715      C1716   1.408       .  A
C1715      C1722   1.517       .  S
C1716      C1717   1.403       .  A
C1716      H1721   1.083       .  S
C1717      C1718   1.415       .  A
C1718      C1719   1.517       .  S
C1719      F1723   1.384       .  S
C1719      F1724   1.381       .  S
C1719      F1725   1.381       .  S
C1722      F1726   1.383       .  S
C1722      F1727   1.383       .  S
C1722      F1728   1.385       .  S
C1729      C1730   1.405       .  A
C1729      C1734   1.407   1_655  A
C1729      H1736   1.083       .  S
C1730      C1731   1.424       .  A
C1731      C1732   1.411       .  A
C1731      C1738   1.520       .  S
C1732      C1733   1.403   1_655  A
C1732      H1737   1.083       .  S
C1733      C1734   1.422       .  A
C1734      C1735   1.522       .  S
C1735      F1739   1.385       .  S
C1735      F1740   1.383       .  S
C1735      F1741   1.384       .  S
C1738      F1742   1.385       .  S
C1738      F1743   1.382       .  S
C1738      F1744   1.382       .  S
C1745      C1746   1.404       .  A
C1745      C1750   1.410       .  A
C1745      H1752   1.083       .  S
C1746      C1747   1.416       .  A
C1747      C1748   1.405       .  A
C1747      C1754   1.519       .  S
C1748      C1749   1.402       .  A
C1748      H1753   1.084       .  S
C1749      C1750   1.416       .  A
C1750      C1751   1.516       .  S
C1751      F1755   1.385       .  S
C1751      F1756   1.382       .  S
C1751      F1757   1.383       .  S
C1754      F1758   1.383       .  S
C1754      F1759   1.381       .  S
C1754      F1760   1.384       .  S
C1761      C1762   1.400       .  A
C1761      C1766   1.407       .  A
C1761      H1768   1.084       .  S
C1762      C1763   1.416       .  A
C1763      C1764   1.410       .  A
C1763      C1770   1.518       .  S
C1764      C1765   1.403       .  A
C1764      H1769   1.083       .  S
C1765      C1766   1.418       .  A
C1766      C1767   1.515       .  S
C1767      F1771   1.385       .  S
C1767      F1772   1.380       .  S
C1767      F1773   1.381       .  S
C1770      F1774   1.383       .  S
C1770      F1775   1.384       .  S
C1770      F1776   1.384       .  S
C1777      C1778   1.403       .  A
C1777      C1782   1.411       .  A
C1777      H1784   1.083       .  S
C1778      C1779   1.419       .  A
C1779      C1780   1.399       .  A
C1779      C1786   1.520       .  S
C1780      C1781   1.400       .  A
C1780      H1785   1.084       .  S
C1781      C1782   1.423       .  A
C1782      C1783   1.522       .  S
C1783      F1787   1.385       .  S
C1783      F1788   1.383       .  S
C1783      F1789   1.383       .  S
C1786      F1790   1.382       .  S
C1786      F1791   1.384       .  S
C1786      F1792   1.385       .  S
C1793      C1794   1.400       .  A
C1793      C1798   1.402       .  A
C1793      H1800   1.084       .  S
C1794      C1795   1.416       .  A
C1795      C1796   1.404       .  A
C1795      C1802   1.518       .  S
C1796      C1797   1.401       .  A
C1796      H1801   1.084       .  S
C1797      C1798   1.414       .  A
C1798      C1799   1.518       .  S
C1799      F1803   1.384       .  S
C1799      F1804   1.384       .  S
C1799      F1805   1.381       .  S
C1802      F1806   1.382       .  S
C1802      F1807   1.383       .  S
C1802      F1808   1.384       .  S
C1809      C1810   1.403       .  A
C1809      C1814   1.404       .  A
C1809      H1816   1.083       .  S
C1810      C1811   1.417       .  A
C1811      C1812   1.411       .  A
C1811      C1818   1.517       .  S
C1812      C1813   1.405       .  A
C1812      H1817   1.083       .  S
C1813      C1814   1.421       .  A
C1814      C1815   1.523       .  S
C1815      F1819   1.385       .  S
C1815      F1820   1.380       .  S
C1815      F1821   1.382       .  S
C1818      F1822   1.382       .  S
C1818      F1823   1.384       .  S
C1818      F1824   1.385       .  S
C1825      C1826   1.402       .  A
C1825      C1830   1.407       .  A
C1825      H1832   1.083       .  S
C1826      C1827   1.415       .  A
C1827      C1828   1.404       .  A
C1827      C1834   1.519       .  S
C1828      C1829   1.401       .  A
C1828      H1833   1.084       .  S
C1829      C1830   1.416       .  A
C1830      C1831   1.520       .  S
C1831      F1835   1.384       .  S
C1831      F1836   1.384       .  S
C1831      F1837   1.382       .  S
C1834      F1838   1.382       .  S
C1834      F1839   1.384       .  S
C1834      F1840   1.385       .  S
C1841      C1842   1.401       .  A
C1841      C1846   1.400       .  A
C1841      H1848   1.084       .  S
C1842      C1843   1.417       .  A
C1843      C1844   1.406       .  A
C1843      C1850   1.519       .  S
C1844      C1845   1.404       .  A
C1844      H1849   1.083       .  S
C1845      C1846   1.420       .  A
C1846      C1847   1.522       .  S
C1847      F1851   1.385       .  S
C1847      F1852   1.383       .  S
C1847      F1853   1.383       .  S
C1850      F1854   1.381       .  S
C1850      F1855   1.384       .  S
C1850      F1856   1.384       .  S
C1857      C1858   1.401       .  A
C1857      C1862   1.403       .  A
C1857      H1864   1.084       .  S
C1858      C1859   1.416       .  A
C1859      C1860   1.404       .  A
C1859      C1866   1.514       .  S
C1860      C1861   1.402       .  A
C1860      H1865   1.084       .  S
C1861      C1862   1.413       .  A
C1862      C1863   1.516       .  S
C1863      F1867   1.385       .  S
C1863      F1868   1.383       .  S
C1863      F1869   1.381       .  S
C1866      F1870   1.377       .  S
C1866      F1871   1.382       .  S
C1866      F1872   1.385       .  S
C1873      C1874   1.403       .  A
C1873      C1878   1.410       .  A
C1873      H1880   1.083       .  S
C1874      C1875   1.417       .  A
C1875      C1876   1.399       .  A
C1875      C1882   1.520       .  S
C1876      C1877   1.401       .  A
C1876      H1881   1.085       .  S
C1877      C1878   1.420       .  A
C1878      C1879   1.520       .  S
C1879      F1883   1.385       .  S
C1879      F1884   1.383       .  S
C1879      F1885   1.382       .  S
C1882      F1886   1.382       .  S
C1882      F1887   1.382       .  S
C1882      F1888   1.384       .  S
C1889      C1890   1.405       .  A
C1889      C1894   1.399       .  A
C1889      H1896   1.081       .  S
C1890      C1891   1.422       .  A
C1891      C1892   1.411       .  A
C1891      C1898   1.519       .  S
C1892      C1893   1.406       .  A
C1892      H1897   1.083       .  S
C1893      C1894   1.419       .  A
C1894      C1895   1.522       .  S
C1895      F1899   1.383       .  S
C1895      F1900   1.380       .  S
C1895      F1901   1.385       .  S
C1898      F1902   1.383       .  S
C1898      F1903   1.383       .  S
C1898      F1904   1.385       .  S
C1905      C1906   1.401       .  A
C1905      C1910   1.399       .  A
C1905      H1912   1.084       .  S
C1906      C1907   1.417       .  A
C1907      C1908   1.405       .  A
C1907      C1914   1.519       .  S
C1908      C1909   1.402       .  A
C1908      H1913   1.083       .  S
C1909      C1910   1.414       .  A
C1910      C1911   1.518       .  S
C1911      F1915   1.385       .  S
C1911      F1916   1.384       .  S
C1911      F1917   1.381       .  S
C1914      F1918   1.383       .  S
C1914      F1919   1.383       .  S
C1914      F1920   1.385       .  S
C1921      C1922   1.403       .  A
C1921      C1926   1.406       .  A
C1921      H1928   1.083       .  S
C1922      C1923   1.416       .  A
C1923      C1924   1.410       .  A
C1923      C1930   1.518       .  S
C1924      C1925   1.406       .  A
C1924      H1929   1.083       .  S
C1925      C1926   1.421       .  A
C1926      C1927   1.521       .  S
C1927      F1931   1.385       .  S
C1927      F1932   1.382       .  S
C1927      F1933   1.379       .  S
C1930      F1934   1.384       .  S
C1930      F1935   1.380       .  S
C1930      F1936   1.384       .  S
C1937      C1938   1.403       .  A
C1937      C1942   1.408       .  A
C1937      H1944   1.083       .  S
C1938      C1939   1.418       .  A
C1939      C1940   1.403       .  A
C1939      C1946   1.520       .  S
C1940      C1941   1.402       .  A
C1940      H1945   1.084       .  S
C1941      C1942   1.421       .  A
C1942      C1943   1.519       .  S
C1943      F1947   1.385       .  S
C1943      F1948   1.383       .  S
C1943      F1949   1.380       .  S
C1946      F1950   1.384       .  S
C1946      F1951   1.382       .  S
C1946      F1952   1.385       .  S
C1953      C1954   1.403       .  A
C1953      C1958   1.402       .  A
C1953      H1960   1.083       .  S
C1954      C1955   1.418       .  A
C1955      C1956   1.409       .  A
C1955      C1962   1.519       .  S
C1956      C1957   1.408       .  A
C1956      H1961   1.082       .  S
C1957      C1958   1.424       .  A
C1958      C1959   1.523       .  S
C1959      F1963   1.385       .  S
C1959      F1964   1.383       .  S
C1959      F1965   1.383       .  S
C1962      F1966   1.383       .  S
C1962      F1967   1.382       .  S
C1962      F1968   1.384       .  S
C1969      C1970   1.406       .  A
C1969      C1974   1.414       .  A
C1969      H1976   1.081       .  S
C1970      C1971   1.422       .  A
C1971      C1972   1.402       .  A
C1971      C1978   1.520       .  S
C1972      C1973   1.401       .  A
C1972      H1977   1.081       .  S
C1973      C1974   1.422       .  A
C1974      C1975   1.519   1_655  S
C1975      F1979   1.384       .  S
C1975      F1980   1.383       .  S
C1975      F1981   1.383       .  S
C1978      F1982   1.379       .  S
C1978      F1983   1.382       .  S
C1978      F1984   1.385       .  S
C1985      C1986   1.403       .  A
C1985      C1990   1.409       .  A
C1985      H1992   1.083   1_655  S
C1986      C1987   1.417       .  A
C1987      C1988   1.405       .  A
C1987      C1994   1.519       .  S
C1988      C1989   1.403       .  A
C1988      H1993   1.083       .  S
C1989      C1990   1.419       .  A
C1990      C1991   1.518       .  S
C1991      F1995   1.385       .  S
C1991      F1996   1.383       .  S
C1991      F1997   1.383       .  S
C1994      F1998   1.383       .  S
C1994      F1999   1.380       .  S
C1994      F2000   1.386       .  S
C2001      C2002   1.405       .  A
C2001      C2006   1.411       .  A
C2001      H2008   1.083       .  S
C2002      C2003   1.420       .  A
C2003      C2004   1.402       .  A
C2003      C2010   1.521       .  S
C2004      C2005   1.401       .  A
C2004      H2009   1.084       .  S
C2005      C2006   1.418       .  A
C2006      C2007   1.517       .  S
C2007      F2011   1.385       .  S
C2007      F2012   1.382       .  S
C2007      F2013   1.384       .  S
C2010      F2014   1.383       .  S
C2010      F2015   1.382   1_545  S
C2010      F2016   1.385       .  S
C2017      C2018   1.406       .  A
C2017      C2022   1.411       .  A
C2017      H2024   1.083       .  S
C2018      C2019   1.418       .  A
C2019      C2020   1.406       .  A
C2019      C2026   1.520       .  S
C2020      C2021   1.403       .  A
C2020      H2025   1.083       .  S
C2021      C2022   1.416       .  A
C2022      C2023   1.517       .  S
C2023      F2027   1.385       .  S
C2023      F2028   1.382       .  S
C2023      F2029   1.384       .  S
C2026      F2030   1.385       .  S
C2026      F2031   1.382       .  S
C2026      F2032   1.382       .  S
C2033      C2034   1.402       .  A
C2033      C2038   1.406       .  A
C2033      H2040   1.083       .  S
C2034      C2035   1.419       .  A
C2035      C2036   1.404       .  A
C2035      C2042   1.521       .  S
C2036      C2037   1.404       .  A
C2036      H2041   1.084       .  S
C2037      C2038   1.422       .  A
C2038      C2039   1.520       .  S
C2039      F2043   1.385       .  S
C2039      F2044   1.382       .  S
C2039      F2045   1.383       .  S
C2042      F2046   1.384       .  S
C2042      F2047   1.383   1_545  S
C2042      F2048   1.385       .  S
C2049      C2050   1.402       .  A
C2049      C2054   1.402       .  A
C2049      H2056   1.084       .  S
C2050      C2051   1.416       .  A
C2051      C2052   1.407       .  A
C2051      C2058   1.517       .  S
C2052      C2053   1.403       .  A
C2052      H2057   1.083       .  S
C2053      C2054   1.416       .  A
C2054      C2055   1.519       .  S
C2055      F2059   1.385       .  S
C2055      F2060   1.384       .  S
C2055      F2061   1.382       .  S
C2058      F2062   1.383       .  S
C2058      F2063   1.383       .  S
C2058      F2064   1.385       .  S
C2065      C2066   1.404       .  A
C2065      C2070   1.412       .  A
C2065      H2072   1.083       .  S
C2066      C2067   1.422       .  A
C2067      C2068   1.401       .  A
C2067      C2074   1.522       .  S
C2068      C2069   1.403       .  A
C2068      H2073   1.083       .  S
C2069      C2070   1.426       .  A
C2070      C2071   1.523       .  S
C2071      F2075   1.385       .  S
C2071      F2076   1.383       .  S
C2071      F2077   1.383       .  S
C2074      F2078   1.383   1_545  S
C2074      F2079   1.383       .  S
C2074      F2080   1.385       .  S
C2081      C2082   1.403       .  A
C2081      C2086   1.406       .  A
C2081      H2088   1.083       .  S
C2082      C2083   1.416       .  A
C2083      C2084   1.410       .  A
C2083      C2090   1.518       .  S
C2084      C2085   1.405       .  A
C2084      H2089   1.083       .  S
C2085      C2086   1.420       .  A
C2086      C2087   1.520       .  S
C2087      F2091   1.386       .  S
C2087      F2092   1.384       .  S
C2087      F2093   1.380       .  S
C2090      F2094   1.383       .  S
C2090      F2095   1.383       .  S
C2090      F2096   1.383       .  S
C2097      C2098   1.403       .  A
C2097      C2102   1.408       .  A
C2097      H2104   1.083       .  S
C2098      C2099   1.418       .  A
C2099      C2100   1.403       .  A
C2099      C2106   1.520       .  S
C2100      C2101   1.403       .  A
C2100      H2105   1.083       .  S
C2101      C2102   1.422       .  A
C2102      C2103   1.520       .  S
C2103      F2107   1.385       .  S
C2103      F2108   1.382       .  S
C2103      F2109   1.383       .  S
C2106      F2110   1.382       .  S
C2106      F2111   1.382       .  S
C2106      F2112   1.385       .  S
C2113      C2114   1.402       .  A
C2113      C2118   1.401       .  A
C2113      H2120   1.083       .  S
C2114      C2115   1.420       .  A
C2115      C2116   1.408       .  A
C2115      C2122   1.518       .  S
C2116      C2117   1.404       .  A
C2116      H2121   1.083       .  S
C2117      C2118   1.423       .  A
C2118      C2119   1.524       .  S
C2119      F2123   1.385       .  S
C2119      F2124   1.382       .  S
C2119      F2125   1.383       .  S
C2122      F2126   1.381       .  S
C2122      F2127   1.383       .  S
C2122      F2128   1.385       .  S
C2129      C2130   1.401       .  A
C2129      C2134   1.403       .  A
C2129      H2136   1.084       .  S
C2130      C2131   1.415       .  A
C2131      C2132   1.405       .  A
C2131      C2138   1.519       .  S
C2132      C2133   1.402       .  A
C2132      H2137   1.084       .  S
C2133      C2134   1.413       .  A
C2134      C2135   1.517       .  S
C2135      F2139   1.385       .  S
C2135      F2140   1.382       .  S
C2135      F2141   1.383       .  S
C2138      F2142   1.383       .  S
C2138      F2143   1.382       .  S
C2138      F2144   1.385       .  S
C2145      C2146   1.402       .  A
C2145      C2150   1.403       .  A
C2145      H2152   1.084       .  S
C2146      C2147   1.415       .  A
C2147      C2148   1.406       .  A
C2147      C2154   1.518       .  S
C2148      C2149   1.402       .  A
C2148      H2153   1.083       .  S
C2149      C2150   1.416       .  A
C2150      C2151   1.520       .  S
C2151      F2155   1.385       .  S
C2151      F2156   1.382       .  S
C2151      F2157   1.384       .  S
C2154      F2158   1.383       .  S
C2154      F2159   1.382       .  S
C2154      F2160   1.384       .  S
C2161      C2162   1.401       .  A
C2161      C2166   1.403       .  A
C2161      H2168   1.084       .  S
C2162      C2163   1.416       .  A
C2163      C2164   1.411       .  A
C2163      C2170   1.519       .  S
C2164      C2165   1.406       .  A
C2164      H2169   1.083   1_655  S
C2165      C2166   1.418       .  A
C2166      C2167   1.520       .  S
C2167      F2171   1.385       .  S
C2167      F2172   1.382       .  S
C2167      F2173   1.383       .  S
C2170      F2174   1.384       .  S
C2170      F2175   1.382       .  S
C2170      F2176   1.385       .  S
C2177      C2178   1.406       .  A
C2177      C2182   1.407       .  A
C2177      H2184   1.078       .  S
C2178      C2179   1.422       .  A
C2179      C2180   1.400       .  A
C2179      C2186   1.523       .  S
C2180      C2181   1.404       .  A
C2180      H2185   1.083       .  S
C2181      C2182   1.419       .  A
C2182      C2183   1.518   1_655  S
C2183      F2187   1.385       .  S
C2183      F2188   1.382       .  S
C2183      F2189   1.383       .  S
C2186      F2190   1.382       .  S
C2186      F2191   1.383       .  S
C2186      F2192   1.386       .  S
C2193      C2194   1.405       .  A
C2193      C2198   1.408       .  A
C2193      H2200   1.083       .  S
C2194      C2195   1.420       .  A
C2195      C2196   1.403       .  A
C2195      C2202   1.522       .  S
C2196      C2197   1.402       .  A
C2196      H2201   1.083       .  S
C2197      C2198   1.417       .  A
C2198      C2199   1.519       .  S
C2199      F2203   1.385       .  S
C2199      F2204   1.384       .  S
C2199      F2205   1.383       .  S
C2202      F2206   1.383       .  S
C2202      F2207   1.384       .  S
C2202      F2208   1.385       .  S
C2209      C2210   1.403       .  A
C2209      C2214   1.406       .  A
C2209      H2216   1.083       .  S
C2210      C2211   1.417       .  A
C2211      C2212   1.402       .  A
C2211      C2218   1.519       .  S
C2212      C2213   1.403       .  A
C2212      H2217   1.084       .  S
C2213      C2214   1.419       .  A
C2214      C2215   1.520       .  S
C2215      F2219   1.385       .  S
C2215      F2220   1.383       .  S
C2215      F2221   1.382       .  S
C2218      F2222   1.384       .  S
C2218      F2223   1.383       .  S
C2218      F2224   1.383       .  S
C2225      C2226   1.401       .  A
C2225      C2230   1.409       .  A
C2225      H2232   1.083       .  S
C2226      C2227   1.422       .  A
C2227      C2228   1.403       .  A
C2227      C2234   1.524       .  S
C2228      C2229   1.407       .  A
C2228      H2233   1.083       .  S
C2229      C2230   1.425       .  A
C2230      C2231   1.516       .  S
C2231      F2235   1.385       .  S
C2231      F2236   1.383       .  S
C2231      F2237   1.380       .  S
C2234      F2238   1.384       .  S
C2234      F2239   1.383       .  S
C2234      F2240   1.385       .  S
C2241      C2242   1.405       .  A
C2241      C2246   1.405       .  A
C2241      H2248   1.084       .  S
C2242      C2243   1.415       .  A
C2243      C2244   1.406       .  A
C2243      C2250   1.518       .  S
C2244      C2245   1.404       .  A
C2244      H2249   1.083       .  S
C2245      C2246   1.417       .  A
C2246      C2247   1.520       .  S
C2247      F2251   1.385       .  S
C2247      F2252   1.382       .  S
C2247      F2253   1.382       .  S
C2250      F2254   1.384       .  S
C2250      F2255   1.383       .  S
C2250      F2256   1.384       .  S
