geometry optimzed in LAMMPS
_audit_creation_date              2020-11-30 
_audit_creation_method            'lammps2cif' 
_symmetry_space_group_name_H-M    'P1' 
_symmetry_Int_Tables_number       1 
_symmetry_cell_setting            triclinic 
loop_ 
_symmetry_equiv_pos_as_xyz 
  x,y,z 
_cell_length_a                    53.18563284 
_cell_length_b                    45.960533279447084 
_cell_length_c                    27.00923432469346 
_cell_angle_alpha                 93.3992194497911 
_cell_angle_beta                  90.1553351065571 
_cell_angle_gamma                 126.08635203541982 
loop_ 
_atom_site_label 
_atom_site_type_symbol 
_atom_site_fract_x 
_atom_site_fract_y 
_atom_site_fract_z 
_atom_site_charge 
C1          C  0.35206023  0.18374409  0.09750593     0.32300
C2          C  0.34149719  0.17484382  0.49534282     0.32300
C3          C  0.31785716  0.15751541  0.07701593    -0.03900
C4          C  0.36314206  0.21815410  0.07158626    -0.04700
C5          C  0.36849354  0.17005570  0.06861957    -0.04500
C6          C  0.31144098  0.15292775  0.52448986    -0.03900
C7          C  0.35694648  0.21333551  0.51910746    -0.04700
C8          C  0.36152427  0.16457801  0.51791996    -0.04500
C9          C  0.28137541  0.14118922  0.51254731    -0.29900
N10         N  0.26680243  0.13828872  0.55484416     0.16600
C11         C  0.29026010  0.15005993  0.09472120    -0.29900
H12         H  0.28631938  0.15529749  0.13240381     0.18500
C13         C  0.36969453  0.24699159  0.50269897    -0.28900
N14         N  0.38253675  0.27173326  0.04405799     0.15300
C15         C  0.37819751  0.25430225  0.08556927    -0.28900
C16         C  0.37780785  0.15163839  0.50044427    -0.29200
N17         N  0.39145024  0.14820414  0.53998303     0.15800
H18         H  0.37953397  0.14510370  0.46203625     0.18400
C19         C  0.38705037  0.15950881  0.08080517    -0.29200
H20         H  0.39447698  0.15892704  0.11786113     0.18400
H21         H  0.38609739  0.26712990  0.12280084     0.18400
H22         H  0.27163555  0.13796780  0.47567118     0.18500
H23         H  0.37097427  0.25355987  0.46453860     0.18400
C24         C  0.35092366  0.18225347  0.34716527     0.32300
C25         C  0.34387372  0.17354198  0.24461699     0.32300
C26         C  0.31694239  0.15657257  0.32539906    -0.03900
C27         C  0.36325735  0.21658034  0.32004920    -0.04700
C28         C  0.36702892  0.16740610  0.31987818    -0.04500
C29         C  0.31363561  0.15181520  0.27301439    -0.03900
C30         C  0.35938816  0.21207640  0.26811568    -0.04700
C31         C  0.36348819  0.16300405  0.26801260    -0.04500
C32         C  0.28372574  0.13996286  0.25995022    -0.29900
N33         N  0.26886170  0.13740925  0.30166060     0.16600
C34         C  0.28893319  0.14886443  0.34130830    -0.29900
H35         H  0.28420463  0.15434458  0.37825192     0.18500
C36         C  0.37307623  0.24576301  0.25117977    -0.28900
N37         N  0.38527978  0.27027831  0.29090951     0.15300
C38         C  0.37957453  0.25304332  0.33308193    -0.28900
C39         C  0.37965612  0.14973975  0.25133929    -0.29200
N40         N  0.39282655  0.14619154  0.29145082     0.15800
H41         H  0.38162505  0.14307206  0.21310891     0.18400
C42         C  0.38535953  0.15681015  0.33333144    -0.29200
H43         H  0.39264077  0.15667398  0.37071543     0.18400
H44         H  0.38737463  0.26616087  0.37018731     0.18400
H45         H  0.27435898  0.13667783  0.22274720     0.18500
H46         H  0.37478473  0.25225963  0.21293832     0.18400
C47         C  0.11889583  0.06714277  0.05603862     0.78800
Tb48       Tb  0.48385220  0.02358864  0.05949291     1.80700
O49         O  0.10157124  0.05660015  0.09258697    -0.49300
O50         O  0.06388736  0.49256218  0.10713299    -0.56700
C51         C  0.05207924  0.08467462  0.05028138     0.94600
O52         O  0.47860985  0.06950756  0.08754741    -0.56200
Tb53       Tb  0.05405807  0.01577449  0.04603869     1.78100
O54         O  0.42102191  0.48058119  0.02289786    -0.56700
O55         O  0.99911785  0.46349073  0.07015311    -0.75500
O56         O  0.05953916  0.06762351  0.02325186    -0.74900
O57         O  0.02486828  0.00241578  0.46826180    -0.60100
C58         C  0.47213559  0.45044624  0.04053282     0.94200
O59         O  0.51018135  0.03874617  0.13616277    -0.72100
C60         C  0.42065209  0.97747027  0.07930899     0.77600
C61         C  0.06574504  0.47431623  0.07253446     0.78600
O62         O  0.10405771  0.05387256  0.01472009    -0.57300
O63         O  0.05715180  0.47689769  0.03045342    -0.49300
O64         O  0.99882460  0.02710099  0.47040807    -0.75300
O65         O  0.04255213  0.02661389  0.12533854    -0.59300
C66         C  0.01690638  0.01414923  0.14587755     0.92400
C67         C  0.01246627  0.01548122  0.44746100     0.93600
C68         C  0.46413173  0.07023025  0.54660038     0.78000
O69         O  0.44191873  0.99527991  0.11304606    -0.48700
O70         O  0.46466837  0.05188559  0.51058570    -0.49800
O71         O  0.46570643  0.46837997  0.01671423    -0.62700
O72         O  0.02897338  0.06844414  0.07769177    -0.63800
C73         C  0.11860354  0.06686789  0.30173578     0.78800
Tb74       Tb  0.47838051  0.01702081  0.30712245     1.80700
O75         O  0.10327914  0.05657775  0.34044943    -0.49300
O76         O  0.05286538  0.48443794  0.35920821    -0.56700
C77         C  0.05217213  0.08731181  0.30488402     0.94600
O78         O  0.47163463  0.06077148  0.33947522    -0.56200
Tb79       Tb  0.05373364  0.01739331  0.29976283     1.78100
O80         O  0.41688364  0.47733112  0.27007671    -0.56700
O81         O  0.99210033  0.45815140  0.26804712    -0.75500
O82         O  0.06078330  0.07117311  0.32822626    -0.74900
O83         O  0.04232403  0.02935634  0.22373260    -0.60100
C84         C  0.47061543  0.44929479  0.28928749     0.94200
O85         O  0.48880513  0.00111834  0.38082756    -0.72100
C86         C  0.41431258  0.96825687  0.31949027     0.77600
C87         C  0.05400857  0.46476125  0.32612438     0.78600
O88         O  0.10182668  0.05405465  0.26205719    -0.57300
O89         O  0.04538773  0.46635939  0.28352132    -0.49300
O90         O  0.99033688  0.99806845  0.21954141    -0.75300
O91         O  0.02624868  0.00322662  0.37184475    -0.59300
C92         C  0.01409451  0.01693971  0.39407680     0.91000
C93         C  0.01648963  0.01378508  0.19944720     0.93600
C94         C  0.46292924  0.06533228  0.29909978     0.78000
O95         O  0.43434460  0.98138905  0.35504967    -0.48700
O96         O  0.46297543  0.04710996  0.26245286    -0.49800
O97         O  0.46020864  0.46457708  0.31289127    -0.62700
O98         O  0.02649777  0.07060169  0.27990785    -0.63800
C99         C  0.17826761  0.35993287  0.02820132     0.32300
C100        C  0.17801354  0.35482924  0.13006064     0.32300
C101        C  0.16384541  0.37555288  0.05849115    -0.03900
C102        C  0.16015722  0.32134999  0.04573790    -0.04700
C103        C  0.21014743  0.37872545  0.05535879    -0.04500
C104        C  0.16311146  0.37288603  0.11011737    -0.03900
C105        C  0.16035086  0.31907824  0.09734154    -0.04700
C106        C  0.21009032  0.37600139  0.10672312    -0.04500
C107        C  0.14569350  0.38478012  0.12725867    -0.29900
N108        N  0.13734347  0.39525795  0.08832178     0.16600
C109        C  0.14802402  0.38954015  0.04632226    -0.29900
H110        H  0.14376029  0.39426871  0.00947300     0.18500
C111        C  0.14405130  0.28313937  0.10578564    -0.28900
N112        N  0.13386675  0.26368633  0.06133714     0.15300
C113        C  0.14322846  0.28635128  0.02444308    -0.28900
C114        C  0.24039056  0.39095628  0.12250641    -0.29200
N115        N  0.25842804  0.40264141  0.08249736     0.15800
H116        H  0.24847675  0.39184947  0.15975635     0.18400
C117        C  0.24032572  0.39531321  0.04143589    -0.29200
H118        H  0.24831660  0.40024244  0.00404138     0.18400
H119        H  0.13803266  0.27776664  0.98531081     0.18400
H120        H  0.13819854  0.38458060  0.16439860     0.18500
H121        H  0.14002248  0.27191895  0.14148101     0.18400
C122        C  0.17460225  0.36150781  0.27952436     0.32300
C123        C  0.17575842  0.35704016  0.38136229     0.32300
C124        C  0.16073427  0.37755672  0.31083688    -0.03900
C125        C  0.15679438  0.32315697  0.29744147    -0.04700
C126        C  0.20683053  0.38019163  0.30537370    -0.04500
C127        C  0.16071533  0.37507382  0.36244427    -0.03900
C128        C  0.15762127  0.32120999  0.34900877    -0.04700
C129        C  0.20745194  0.37781610  0.35684858    -0.04500
C130        C  0.14186027  0.38469528  0.38045090    -0.29900
N131        N  0.13202913  0.39398025  0.34207495     0.16600
C132        C  0.14303425  0.38941166  0.29958532    -0.29900
H133        H  0.13721447  0.39279505  0.26297837     0.18500
C134        C  0.14275120  0.28557783  0.35770989    -0.28900
N135        N  0.13294155  0.26595928  0.31344341     0.15300
C136        C  0.14126416  0.28828724  0.27629111    -0.28900
C137        C  0.23734168  0.39017359  0.37100457    -0.29200
N138        N  0.25449079  0.39995653  0.33001886     0.15800
H139        H  0.24553522  0.39010525  0.40770215     0.18400
C140        C  0.23621553  0.39379918  0.28982551    -0.29200
H141        H  0.24333644  0.39701963  0.25187079     0.18400
H142        H  0.13698385  0.27983764  0.23707903     0.18400
H143        H  0.13406268  0.38312879  0.41771227     0.18500
H144        H  0.13989167  0.27471304  0.39342445     0.18400
C145        C  0.17757971  0.35221119  0.43725795    -0.14100
C146        C  0.17904113  0.36561795  0.97230297    -0.29300
H147        H  0.18369106  0.33438482  0.44667244     0.14900
H148        H  0.18042637  0.38899506  0.96222229     0.15500
C149        C  0.17941492  0.34999930  0.18617010    -0.14100
C150        C  0.17381602  0.36617451  0.22354101    -0.29300
H151        H  0.18611525  0.33280483  0.19608261     0.14900
H152        H  0.16980412  0.38554262  0.21412111     0.15500
C153        C  0.11743685  0.22848639  0.30792960    -0.16200
C154        C  0.10388953  0.19621686  0.30608535     0.07900
C155        C  0.08725693  0.15840473  0.30632860     0.09700
C156        C  0.07198885  0.12600769  0.30655224    -0.17000
C157        C  0.37145311  0.45076564  0.31684566    -0.16200
C158        C  0.34396155  0.43622985  0.32121409     0.07900
C159        C  0.31225056  0.42212085  0.32571966     0.09700
C160        C  0.28549563  0.41160614  0.32838879    -0.17000
C161        C  0.11246249  0.40518557  0.34471238    -0.16200
C162        C  0.09639477  0.41585782  0.34427732     0.07900
C163        C  0.07908460  0.43021707  0.34059820     0.09700
C164        C  0.06616851  0.44449702  0.33525373    -0.17000
C165        C  0.11682150  0.22598922  0.05500709    -0.16200
C166        C  0.10223914  0.19354560  0.05148239     0.07900
C167        C  0.08504919  0.15557867  0.04980004     0.09700
C168        C  0.07013972  0.12319609  0.04971567    -0.17000
C169        C  0.29014066  0.41673060  0.08229301    -0.16200
C170        C  0.31726624  0.42841590  0.08032178     0.07900
C171        C  0.34901158  0.44229059  0.07596896     0.09700
C172        C  0.37631966  0.45560649  0.07124363    -0.17000
C173        C  0.11998303  0.40938894  0.09018579    -0.16200
C174        C  0.10570376  0.42232366  0.08911538     0.07900
C175        C  0.09005789  0.43866895  0.08500419     0.09700
C176        C  0.07796377  0.45391084  0.07995544    -0.17000
C177        C  0.45220472  0.08752454  0.29555259    -0.16200
C178        C  0.44070575  0.10356638  0.29291900     0.07900
C179        C  0.42509774  0.11999481  0.29073438     0.09700
C180        C  0.41051107  0.13252294  0.29031057    -0.17000
C181        C  0.40270348  0.30778501  0.28823256    -0.16200
C182        C  0.41796096  0.34005128  0.28572020     0.07900
C183        C  0.43618008  0.37798871  0.28411619     0.09700
C184        C  0.45190972  0.41050847  0.28498542    -0.17000
C185        C  0.15209390  0.08889981  0.30269958    -0.16200
C186        C  0.17988620  0.10385548  0.30332246     0.07900
C187        C  0.21180362  0.11797384  0.30352833     0.09700
C188        C  0.23843012  0.12772915  0.30303155    -0.17000
C189        C  0.45289545  0.09186121  0.54171929    -0.16200
C190        C  0.44078613  0.10723875  0.53883171     0.07900
C191        C  0.42449009  0.12292053  0.53733895     0.09700
C192        C  0.40948547  0.13496561  0.53784935    -0.17000
C193        C  0.39911862  0.30920781  0.04221336    -0.16200
C194        C  0.41423361  0.34147090  0.03995855     0.07900
C195        C  0.43331904  0.37935100  0.03772674     0.09700
C196        C  0.45064684  0.41178878  0.03753933    -0.17000
C197        C  0.23915342  0.12950720  0.05954974    -0.16200
C198        C  0.21245356  0.11953346  0.06153106     0.07900
C199        C  0.18037881  0.10503877  0.06213277     0.09700
C200        C  0.15247697  0.08975267  0.06072008    -0.17000
C201        C  0.33581773  0.16849968  0.43835345    -0.14100
C202        C  0.35724008  0.18824500  0.40434788    -0.29300
H203        H  0.31287183  0.14562929  0.42510208     0.14900
H204        H  0.38087105  0.20957042  0.41794157     0.15500
C205        C  0.35902092  0.18896635  0.15421042    -0.14100
C206        C  0.33836041  0.16730528  0.18775986    -0.29300
H207        H  0.38241378  0.21111792  0.16764624     0.14900
H208        H  0.31589664  0.14356492  0.17409542     0.15500
C209        C  0.34944905  0.18346268  0.59780002     0.32300
C210        C  0.34361239  0.17579670  0.99544638     0.32300
C211        C  0.31523998  0.15755852  0.57689806    -0.03900
C212        C  0.36112868  0.21768993  0.57101344    -0.04700
C213        C  0.36550991  0.16893314  0.56966574    -0.04500
C214        C  0.31375678  0.15317468  0.02469406    -0.03900
C215        C  0.35859652  0.21403565  0.01979214    -0.04700
C216        C  0.36429913  0.16595049  0.01694895    -0.04500
C217        C  0.28376813  0.14201115  0.01350163    -0.29900
N218        N  0.26958628  0.13922442  0.05617978     0.16600
C219        C  0.28730414  0.14959355  0.59389491    -0.29900
H220        H  0.28287987  0.15460534  0.63133919     0.18500
C221        C  0.37070177  0.24764141  0.00382614    -0.28900
N222        N  0.38140966  0.27123841  0.54281647     0.15300
C223        C  0.37644454  0.25389188  0.58460999    -0.28900
C224        C  0.38039564  0.15276320  0.99902719    -0.29200
N225        N  0.39411959  0.14907081  0.03829830     0.15800
H226        H  0.38165195  0.14587561  0.96056536     0.18400
C227        C  0.38417823  0.15860988  0.58231287    -0.29200
H228        H  0.39181159  0.15851921  0.61946106     0.18400
H229        H  0.38393720  0.26678517  0.62186315     0.18400
H230        H  0.27393313  0.13935041  0.97693381     0.18500
H231        H  0.37163068  0.25437780  0.96583825     0.18400
C232        C  0.35097325  0.18603977  0.84850140     0.32300
C233        C  0.34271373  0.17695851  0.74615198     0.32300
C234        C  0.31679350  0.16164698  0.82785284    -0.03900
C235        C  0.36414672  0.22051209  0.82130417    -0.04700
C236        C  0.36555293  0.16963925  0.82078030    -0.04500
C237        C  0.31282952  0.15681945  0.77569351    -0.03900
C238        C  0.35981337  0.21597340  0.76939941    -0.04700
C239        C  0.36142781  0.16492624  0.76901772    -0.04500
C240        C  0.28273808  0.14477321  0.76389710    -0.29900
N241        N  0.26838535  0.14204569  0.80637251     0.16600
C242        C  0.28895250  0.15343753  0.84537372    -0.29900
H243        H  0.28456817  0.15795692  0.88311909     0.18500
C244        C  0.37386789  0.24987895  0.75269047    -0.28900
N245        N  0.38650696  0.27439551  0.79259034     0.15300
C246        C  0.38081274  0.25696353  0.83454017    -0.28900
C247        C  0.37692577  0.15080603  0.75214017    -0.29200
N248        N  0.39018499  0.14714528  0.79207436     0.15800
H249        H  0.37878031  0.14415487  0.71385333     0.18400
C250        C  0.38343968  0.15846729  0.83401868    -0.29200
H251        H  0.39131397  0.15894089  0.87124239     0.18400
H252        H  0.38865792  0.26992877  0.87172584     0.18400
H253        H  0.27270432  0.14095127  0.72705984     0.18500
H254        H  0.37531718  0.25640048  0.71449327     0.18400
C255        C  0.11524467  0.06466470  0.55216583     0.78800
Tb256      Tb  0.47976923  0.02233161  0.55732953     1.80700
O257        O  0.09853714  0.05719004  0.58919927    -0.49300
O258        O  0.05114542  0.48714495  0.61183841    -0.56700
C259        C  0.04706328  0.08532073  0.55035652     0.94600
O260        O  0.47260786  0.06612469  0.58769519    -0.56200
Tb261      Tb  0.05006770  0.01567061  0.54559359     1.78100
O262        O  0.41539811  0.48347484  0.52585707    -0.56700
O263        O  0.99081432  0.45487081  0.54892054    -0.75500
O264        O  0.05657434  0.06918556  0.52617181    -0.74900
O265        O  0.02858369  0.00086383  0.96827541    -0.60100
C266        C  0.46638722  0.45030389  0.54517074     0.94200
O267        O  0.50509828  0.03861535  0.63596494    -0.72100
C268        C  0.41521964  0.97617518  0.56667407     0.77600
C269        C  0.05794023  0.47136763  0.58083947     0.78600
O270        O  0.09969142  0.04934940  0.51174480    -0.57300
O271        O  0.05378109  0.47490575  0.53626557    -0.49300
O272        O  0.00182133  0.02465563  0.97050201    -0.75300
O273        O  0.03926583  0.02752016  0.62432773    -0.59300
C274        C  0.01356506  0.01423708  0.64493939     0.92400
C275        C  0.01482984  0.01232317  0.94739618     0.93600
C276        C  0.46603933  0.06962728  0.04792623     0.78000
O277        O  0.43442368  0.99230233  0.60340092    -0.48700
O278        O  0.46346294  0.04812759  0.01350416    -0.49800
O279        O  0.45826044  0.46748975  0.52349771    -0.62700
O280        O  0.02347657  0.06848183  0.57681453    -0.63800
C281        C  0.11689174  0.06503027  0.80088117     0.78800
Tb282      Tb  0.48018777  0.02345751  0.80970669     1.80700
O283        O  0.10109715  0.05516986  0.83908783    -0.49300
O284        O  0.05388724  0.47303742  0.85227847    -0.56700
C285        C  0.04961772  0.08260969  0.80094840     0.94600
O286        O  0.46815424  0.06251634  0.84194562    -0.56200
Tb287      Tb  0.05220969  0.01379710  0.79760346     1.78100
O288        O  0.42480849  0.48174375  0.78367852    -0.56700
O289        O  0.99391787  0.44965427  0.77135717    -0.75500
O290        O  0.05830912  0.06707154  0.82555280    -0.74900
O291        O  0.03901062  0.02436912  0.72147666    -0.60100
C292        C  0.47656535  0.45428023  0.79654865     0.94200
O293        O  0.49218761  0.00811520  0.88278161    -0.72100
C294        C  0.41549029  0.97514954  0.81865535     0.77600
C295        C  0.05740281  0.45598061  0.81809185     0.78600
O296        O  0.10063125  0.05085104  0.76077190    -0.57300
O297        O  0.05148952  0.46074194  0.77534872    -0.49300
O298        O  0.98730726  0.99712824  0.71873324    -0.75300
O299        O  0.02467717  0.99676712  0.86987086    -0.59300
C300        C  0.01415088  0.01175492  0.89378439     0.91000
C301        C  0.01326336  0.01183675  0.69822601     0.93600
C302        C  0.46468035  0.07163122  0.80087863     0.78000
O303        O  0.43457740  0.99118160  0.85554831    -0.48700
O304        O  0.47017185  0.05822596  0.76419539    -0.49800
O305        O  0.46922146  0.47117967  0.82442602    -0.62700
O306        O  0.02333492  0.06524709  0.77764158    -0.63800
C307        C  0.17198681  0.36191097  0.53042129     0.32300
C308        C  0.17038592  0.35318819  0.63112454     0.32300
C309        C  0.16018393  0.37979345  0.56310506    -0.03900
C310        C  0.15120470  0.32261507  0.54543652    -0.04700
C311        C  0.20339683  0.37659927  0.55703663    -0.04500
C312        C  0.15913383  0.37516643  0.61389002    -0.03900
C313        C  0.15065707  0.31852454  0.59649037    -0.04700
C314        C  0.20285380  0.37205767  0.60818542    -0.04500
C315        C  0.14347143  0.38812399  0.63464931    -0.29900
N316        N  0.13544577  0.40063508  0.59813351     0.16600
C317        C  0.14528276  0.39556874  0.55444143    -0.29900
H318        H  0.14036448  0.40114810  0.51874777     0.18500
C319        C  0.13284557  0.28213307  0.60266261    -0.28900
N320        N  0.12260814  0.26398465  0.55729403     0.15300
C321        C  0.13352728  0.28816423  0.52196483    -0.28900
C322        C  0.23266098  0.38364534  0.62265709    -0.29200
N323        N  0.25077342  0.39560670  0.58268630     0.15800
H324        H  0.24056634  0.38239976  0.65885179     0.18400
C325        C  0.23323756  0.39135761  0.54254149    -0.29200
H326        H  0.24139532  0.39760801  0.50531184     0.18400
H327        H  0.12973023  0.28120880  0.48235270     0.18400
H328        H  0.13688886  0.38676610  0.67269646     0.18500
H329        H  0.12852251  0.26972227  0.63746088     0.18400
C330        C  0.18431521  0.35881846  0.77865490     0.32300
C331        C  0.18058642  0.35101925  0.87967020     0.32300
C332        C  0.16520869  0.36927593  0.80659339    -0.03900
C333        C  0.16931920  0.32027064  0.79425591    -0.04700
C334        C  0.21528885  0.38074502  0.80963405    -0.04500
C335        C  0.16299488  0.36517091  0.85788409    -0.03900
C336        C  0.16749709  0.31662104  0.84550543    -0.04700
C337        C  0.21350986  0.37668458  0.86074563    -0.04500
C338        C  0.14351271  0.37404852  0.87444776    -0.29900
N339        N  0.13447865  0.38361066  0.83519439     0.16600
C340        C  0.14749654  0.38078973  0.79381349    -0.29900
H341        H  0.14407536  0.38641127  0.75715805     0.18500
C342        C  0.15075652  0.28042412  0.85233612    -0.28900
N343        N  0.14245318  0.26205753  0.80719327     0.15300
C344        C  0.15344418  0.28578860  0.77132135    -0.28900
C345        C  0.24323598  0.39085403  0.87889379    -0.29200
N346        N  0.26263325  0.40367695  0.84065942     0.15800
H347        H  0.24981795  0.38939583  0.91605711     0.18400
C348        C  0.24593602  0.39728156  0.79833254    -0.29200
H349        H  0.25508909  0.40181847  0.76160549     0.18400
H350        H  0.14913267  0.27837383  0.73180826     0.18400
H351        H  0.13611071  0.37324163  0.91193182     0.18500
H352        H  0.14395053  0.26814435  0.88741463     0.18400
C353        C  0.17932280  0.34468555  0.93531074    -0.14100
C354        C  0.17238159  0.36847598  0.47503719    -0.29300
H355        H  0.18044432  0.32297961  0.94532475     0.14900
H356        H  0.16880814  0.38836704  0.46631010     0.15500
C357        C  0.16604206  0.34621202  0.68673722    -0.14100
C358        C  0.18861986  0.36531685  0.72303387    -0.29300
H359        H  0.14262712  0.32562812  0.69763291     0.14900
H360        H  0.21140237  0.38750824  0.71269285     0.15500
C361        C  0.12338437  0.22423566  0.79996669    -0.16200
C362        C  0.10673073  0.19163922  0.79733766     0.07900
C363        C  0.08705866  0.15357990  0.79780134     0.09700
C364        C  0.07011003  0.12118972  0.79938307    -0.17000
C365        C  0.38053708  0.45788692  0.83264414    -0.16200
C366        C  0.35311249  0.44345395  0.83756998     0.07900
C367        C  0.32125605  0.42877891  0.84158910     0.09700
C368        C  0.29414644  0.41709175  0.84257133    -0.17000
C369        C  0.11511868  0.39518319  0.83655190    -0.16200
C370        C  0.09920356  0.40610078  0.83557851     0.07900
C371        C  0.08203902  0.42072521  0.83179666     0.09700
C372        C  0.06927765  0.43525301  0.82660510    -0.17000
C373        C  0.10579161  0.22625093  0.54925780    -0.16200
C374        C  0.09197131  0.19378122  0.54598581     0.07900
C375        C  0.07646389  0.15590076  0.54593343     0.09700
C376        C  0.06333003  0.12372932  0.54758112    -0.17000
C377        C  0.28252534  0.40952257  0.58230656    -0.16200
C378        C  0.30995742  0.42220020  0.58074536     0.07900
C379        C  0.34236070  0.43850327  0.57740492     0.09700
C380        C  0.37014785  0.45407893  0.57353348    -0.17000
C381        C  0.11729450  0.41363666  0.60316047    -0.16200
C382        C  0.10178767  0.42504088  0.60443861     0.07900
C383        C  0.08441346  0.43930856  0.60123497     0.09700
C384        C  0.07102956  0.45284424  0.59437558    -0.17000
C385        C  0.45338938  0.09317445  0.79629169    -0.16200
C386        C  0.44094322  0.10813854  0.79342249     0.07900
C387        C  0.42401014  0.12295794  0.79123799     0.09700
C388        C  0.40849950  0.13430401  0.79076042    -0.17000
C389        C  0.40418905  0.31206333  0.79074428    -0.16200
C390        C  0.41997146  0.34456040  0.79001936     0.07900
C391        C  0.43928153  0.38276079  0.79062311     0.09700
C392        C  0.45621576  0.41538648  0.79247532    -0.17000
C393        C  0.15040172  0.08822707  0.80319339    -0.16200
C394        C  0.17836187  0.10446075  0.80589548     0.07900
C395        C  0.21063961  0.12021832  0.80844734     0.09700
C396        C  0.23762260  0.13121984  0.80868796    -0.17000
C397        C  0.45415074  0.09072265  0.04313822    -0.16200
C398        C  0.44201083  0.10609923  0.03965582     0.07900
C399        C  0.42607473  0.12226594  0.03674870     0.09700
C400        C  0.41154838  0.13496733  0.03624168    -0.17000
C401        C  0.39770922  0.30869131  0.54111683    -0.16200
C402        C  0.41224138  0.34099102  0.53993247     0.07900
C403        C  0.43012164  0.37897992  0.53969918     0.09700
C404        C  0.44619813  0.41152167  0.54116144    -0.17000
C405        C  0.23602209  0.12767916  0.55727522    -0.16200
C406        C  0.20905965  0.11696255  0.55815532     0.07900
C407        C  0.17679679  0.10187436  0.55755611     0.09700
C408        C  0.14886899  0.08657424  0.55580562    -0.17000
C409        C  0.33742160  0.17001241  0.93875929    -0.14100
C410        C  0.35791796  0.19178580  0.90518599    -0.29300
H411        H  0.31478355  0.14649650  0.92519849     0.14900
H412        H  0.38136360  0.21386279  0.91855150     0.15500
C413        C  0.35678567  0.18976406  0.65463614    -0.14100
C414        C  0.33616777  0.16998745  0.68938244    -0.29300
H415        H  0.38055901  0.21133148  0.66724212     0.14900
H416        H  0.31313102  0.14688271  0.67683657     0.15500
C417        C  0.34195221  0.68059367  0.08658136     0.32300
C418        C  0.33256384  0.67301082  0.48337941     0.32300
C419        C  0.30881762  0.65994081  0.06229822    -0.03900
C420        C  0.35901696  0.71633473  0.06136500    -0.04700
C421        C  0.35496651  0.66196804  0.06028911    -0.04500
C422        C  0.30118173  0.65776117  0.50685153    -0.03900
C423        C  0.35329506  0.71222761  0.50819206    -0.04700
C424        C  0.34441651  0.65483856  0.51158058    -0.04500
C425        C  0.27122431  0.64290476  0.48961667    -0.29900
N426        N  0.25377120  0.63761709  0.52924880     0.16600
C427        C  0.28058410  0.65166666  0.07725537    -0.29900
H428        H  0.27468655  0.65487186  0.11445870     0.18500
C429        C  0.37368112  0.74728271  0.49433833    -0.28900
N430        N  0.39000484  0.77172262  0.03707209     0.15300
C431        C  0.37913020  0.75231600  0.07744785    -0.28900
C432        C  0.36300281  0.64413314  0.49846751    -0.29200
N433        N  0.37510292  0.64131871  0.54044727     0.15800
H434        H  0.36905446  0.64113237  0.46123018     0.18400
C435        C  0.37110220  0.64876925  0.07460548    -0.29200
H436        H  0.37778416  0.64812652  0.11218497     0.18400
H437        H  0.38616552  0.76352565  0.11549614     0.18400
H438        H  0.26284826  0.63709735  0.45125175     0.18500
H439        H  0.38119822  0.75610979  0.45771504     0.18400
C440        C  0.33506121  0.68101600  0.33501015     0.32300
C441        C  0.32908634  0.67125549  0.23253151     0.32300
C442        C  0.30160908  0.65771461  0.31225448    -0.03900
C443        C  0.35004928  0.71524331  0.30652427    -0.04700
C444        C  0.34926145  0.66294426  0.31015274    -0.04500
C445        C  0.29866276  0.65265863  0.26028018    -0.03900
C446        C  0.34682785  0.71034290  0.25470885    -0.04700
C447        C  0.34611966  0.65801398  0.25805551    -0.04500
C448        C  0.26811072  0.63754457  0.24680072    -0.29900
N449        N  0.25263390  0.63308894  0.28862979     0.16600
C450        C  0.27267681  0.64558136  0.32874103    -0.29900
H451        H  0.26703776  0.64776235  0.36655493     0.18500
C452        C  0.36305664  0.74409496  0.23692821    -0.28900
N453        N  0.37608831  0.76885901  0.27632598     0.15300
C454        C  0.36846823  0.75186449  0.31884384    -0.28900
C455        C  0.36062814  0.64244896  0.24287108    -0.29200
N456        N  0.37242664  0.63788345  0.28381158     0.15800
H457        H  0.36281195  0.63539869  0.20498279     0.18400
C458        C  0.36574189  0.65019710  0.32498838    -0.29200
H459        H  0.37266207  0.65021825  0.36272362     0.18400
H460        H  0.37674992  0.76535186  0.35569028     0.18400
H461        H  0.25821386  0.63221019  0.20943117     0.18500
H462        H  0.36608211  0.75037701  0.19851231     0.18400
C463        C  0.11116822  0.56797581  0.05005665     0.78800
Tb464      Tb  0.47354993  0.52102592  0.05195834     1.80700
O465        O  0.09730306  0.56556187  0.08920816    -0.49300
O466        O  0.06858393  0.98100025  0.07880549    -0.56700
C467        C  0.04446709  0.58752526  0.05773443     0.94600
O468        O  0.46402186  0.56265523  0.08109682    -0.56200
Tb469      Tb  0.04673349  0.51856725  0.05683663     1.78100
O470        O  0.43067889  0.98148386  0.03612453    -0.56700
O471        O  0.00672814  0.96128053  0.06341442    -0.75500
O472        O  0.05270519  0.57047798  0.03278914    -0.74900
O473        O  0.01316570  0.49904569  0.47547685    -0.60100
C474        C  0.48508429  0.95168733  0.04514925     0.94200
O475        O  0.48353728  0.50624293  0.12662339    -0.72100
C476        C  0.40930002  0.47507569  0.06486690     0.77600
C477        C  0.07403522  0.97129879  0.03814683     0.78600
O478        O  0.09312755  0.54712793  0.01400293    -0.57300
O479        O  0.06783336  0.98171701  0.00092956    -0.49300
O480        O  0.98649914  0.52294719  0.47973087    -0.75300
O481        O  0.03287490  0.53127193  0.13297007    -0.59300
C482        C  0.00615200  0.51596788  0.15118572     0.92400
C483        C  0.99955042  0.51097147  0.45555808     0.93600
C484        C  0.45402947  0.57184389  0.54981434     0.78000
O485        O  0.42932341  0.49045738  0.10055598    -0.48700
O486        O  0.45489873  0.55492729  0.51220602    -0.49800
O487        O  0.47500961  0.96749002  0.06850383    -0.62700
O488        O  0.01921472  0.57118822  0.08030447    -0.63800
C489        C  0.10130360  0.55674816  0.29318598     0.78800
Tb490      Tb  0.46867150  0.52001732  0.30083437     1.80700
O491        O  0.08908708  0.55558242  0.33357002    -0.49300
O492        O  0.06549487  0.98262217  0.34143914    -0.56700
C493        C  0.03664597  0.58153079  0.31212594     0.94600
O494        O  0.45826832  0.56096536  0.33090733    -0.56200
Tb495      Tb  0.03730402  0.51065714  0.30572863     1.78100
O496        O  0.42596115  0.97818553  0.27792815    -0.56700
O497        O  0.00770195  0.96192286  0.27056722    -0.75500
O498        O  0.04528310  0.56504161  0.33457273    -0.74900
O499        O  0.02859175  0.52556157  0.23006212    -0.60100
C500        C  0.47764180  0.94680935  0.28833654     0.94200
O501        O  0.49278299  0.53546543  0.37948130    -0.72100
C502        C  0.40456869  0.47206573  0.31159916     0.77600
C503        C  0.07110497  0.97053235  0.30318463     0.78600
O504        O  0.08187204  0.53630580  0.25823720    -0.57300
O505        O  0.06706028  0.98054147  0.26336525    -0.49300
O506        O  0.97730643  0.49967395  0.22300352    -0.75300
O507        O  0.01017830  0.49619987  0.37839633    -0.59300
C508        C  0.99900121  0.51065495  0.40177171     0.91000
C509        C  0.00385196  0.51372291  0.20458024     0.93600
C510        C  0.44883478  0.56386923  0.28988468     0.78000
O511        O  0.42398602  0.48911597  0.34790936    -0.48700
O512        O  0.45073845  0.54663735  0.25377319    -0.49800
O513        O  0.47102604  0.96575696  0.26797169    -0.62700
O514        O  0.01097561  0.56489897  0.28702148    -0.63800
C515        C  0.19309653  0.85913366  0.01539432     0.32300
C516        C  0.18788743  0.86306478  0.11699641     0.32300
C517        C  0.18242932  0.88218907  0.03503531    -0.03900
C518        C  0.17007916  0.82302280  0.03850305    -0.04700
C519        C  0.22297557  0.87499314  0.04795651    -0.04500
C520        C  0.17961788  0.88398511  0.08651547    -0.03900
C521        C  0.16735329  0.82507583  0.09008742    -0.04700
C522        C  0.22037249  0.87705048  0.09936683    -0.04500
C523        C  0.16376773  0.89896646  0.09540389    -0.29900
N524        N  0.15741679  0.90663129  0.05139689     0.16600
C525        C  0.16847842  0.89645097  0.01436642    -0.29900
H526        H  0.16480343  0.89725775  0.97527710     0.18500
C527        C  0.14765034  0.79023285  0.10379489    -0.28900
N528        N  0.13858075  0.76743424  0.06248726     0.15300
C529        C  0.15205311  0.78690423  0.02249989    -0.28900
C530        C  0.24921757  0.89097840  0.12120668    -0.29200
N531        N  0.26889192  0.89712475  0.08462027     0.15800
H532        H  0.25538900  0.89601027  0.16053439     0.18400
C533        C  0.25332368  0.88764088  0.03997276    -0.29200
H534        H  0.26341405  0.88959676  0.00447761     0.18400
H535        H  0.14951087  0.77559370  0.98494949     0.18400
H536        H  0.15552969  0.90175256  0.13071447     0.18500
H537        H  0.14096753  0.78194216  0.14104103     0.18400
C538        C  0.18456639  0.85169563  0.26397241     0.32300
C539        C  0.18414007  0.85884190  0.36625086     0.32300
C540        C  0.17402125  0.87488608  0.28496541    -0.03900
C541        C  0.16288818  0.81648834  0.28986438    -0.04700
C542        C  0.21573467  0.86838850  0.29298343    -0.04500
C543        C  0.17440551  0.87877422  0.33707271    -0.03900
C544        C  0.16243378  0.82004322  0.34176713    -0.04700
C545        C  0.21556392  0.87208444  0.34471525    -0.04500
C546        C  0.15636677  0.89045944  0.34916241    -0.29900
N547        N  0.14498796  0.89373931  0.30682687     0.16600
C548        C  0.15429033  0.88298486  0.26769085    -0.29900
H549        H  0.14529240  0.87888448  0.23001929     0.18500
C550        C  0.14250947  0.78565310  0.35728873    -0.28900
N551        N  0.13120608  0.76177513  0.31670800     0.15300
C552        C  0.14343383  0.78010708  0.27547927    -0.28900
C553        C  0.24489697  0.88510211  0.36323038    -0.29200
N554        N  0.26255567  0.88920624  0.32433104     0.15800
H555        H  0.25263850  0.89047170  0.40193284     0.18400
C556        C  0.24514333  0.87909334  0.28142962    -0.29200
H557        H  0.25312772  0.87880873  0.24473915     0.18400
H558        H  0.13879356  0.76783127  0.23798220     0.18400
H559        H  0.15010283  0.89387296  0.38601059     0.18500
H560        H  0.13693790  0.77840212  0.39514821     0.18400
C561        C  0.18406377  0.86515512  0.42277284    -0.14100
C562        C  0.19771236  0.85791534  0.95915978    -0.29300
H563        H  0.18448679  0.88815812  0.43550863     0.14900
H564        H  0.21967269  0.86399666  0.94885054     0.15500
C565        C  0.18526654  0.86688904  0.17335979    -0.14100
C566        C  0.18654902  0.84706110  0.20723672    -0.29300
H567        H  0.18372095  0.88839703  0.18637665     0.14900
H568        H  0.19056757  0.82740239  0.19404472     0.15500
C569        C  0.11077108  0.72396130  0.31728866    -0.16200
C570        C  0.09340416  0.69138879  0.31723968     0.07900
C571        C  0.07342763  0.65313134  0.31636319     0.09700
C572        C  0.05665303  0.62048183  0.31494414    -0.17000
C573        C  0.38123150  0.94580935  0.32560863    -0.16200
C574        C  0.35340746  0.92972464  0.32826836     0.07900
C575        C  0.32109478  0.91367750  0.32893702     0.09700
C576        C  0.29389390  0.90185953  0.32757955    -0.17000
C577        C  0.12571441  0.90527444  0.30452543    -0.16200
C578        C  0.11041696  0.91694566  0.30406254     0.07900
C579        C  0.09443804  0.93309240  0.30456417     0.09700
C580        C  0.08258857  0.94890687  0.30465485    -0.17000
C581        C  0.11901872  0.72958408  0.06172747    -0.16200
C582        C  0.10196625  0.69704953  0.06148005     0.07900
C583        C  0.08165038  0.65892524  0.06107595     0.09700
C584        C  0.06436914  0.62636730  0.06013895    -0.17000
C585        C  0.30045585  0.91114039  0.09114551    -0.16200
C586        C  0.32783926  0.92379356  0.09391847     0.07900
C587        C  0.36022775  0.94024423  0.09291636     0.09700
C588        C  0.38792405  0.95608967  0.08858748    -0.17000
C589        C  0.13860993  0.91844499  0.04472079    -0.16200
C590        C  0.12212767  0.92827128  0.03975516     0.07900
C591        C  0.10315392  0.94042692  0.03595828     0.09700
C592        C  0.08836057  0.95270819  0.03521692    -0.17000
C593        C  0.43522122  0.58301221  0.28539880    -0.16200
C594        C  0.42165763  0.59674953  0.28348460     0.07900
C595        C  0.40453810  0.61143371  0.28294139     0.09700
C596        C  0.38965737  0.62362487  0.28334347    -0.17000
C597        C  0.39690598  0.80621064  0.27381800    -0.16200
C598        C  0.41548198  0.83840948  0.27366744     0.07900
C599        C  0.43762082  0.87612208  0.27653180     0.09700
C600        C  0.45628458  0.90840096  0.28109720    -0.17000
C601        C  0.13435462  0.57762677  0.28861741    -0.16200
C602        C  0.16207537  0.59279415  0.28781696     0.07900
C603        C  0.19420017  0.60833194  0.28881717     0.09700
C604        C  0.22132892  0.62017618  0.28945452    -0.17000
C605        C  0.44319271  0.59398853  0.54764136    -0.16200
C606        C  0.43062301  0.60887422  0.54611985     0.07900
C607        C  0.41287202  0.62265871  0.54421958     0.09700
C608        C  0.39592830  0.63202465  0.54243767    -0.17000
C609        C  0.41127785  0.80949177  0.03807353    -0.16200
C610        C  0.42907215  0.84202014  0.03877378     0.07900
C611        C  0.44919685  0.88020052  0.03974912     0.09700
C612        C  0.46583468  0.91281060  0.04135465    -0.17000
C613        C  0.23090243  0.63135410  0.03751362    -0.16200
C614        C  0.20414247  0.62088268  0.03990362     0.07900
C615        C  0.17222367  0.60601041  0.04391185     0.09700
C616        C  0.14451629  0.59052319  0.04724103    -0.17000
C617        C  0.32962920  0.66478770  0.42620117    -0.14100
C618        C  0.33876380  0.68911247  0.39184137    -0.29300
H619        H  0.31822161  0.63678355  0.41280733     0.14900
H620        H  0.34776367  0.71621503  0.40462778     0.15500
C621        C  0.34690312  0.68467898  0.14352195    -0.14100
C622        C  0.32436492  0.66503034  0.17575979    -0.29300
H623        H  0.37057946  0.70426851  0.15851358     0.14900
H624        H  0.30128617  0.64335430  0.16119178     0.15500
C625        C  0.33329855  0.67983785  0.58632354     0.32300
C626        C  0.33782859  0.67487267  0.98379872     0.32300
C627        C  0.30157789  0.66137922  0.55867394    -0.03900
C628        C  0.35313862  0.71518962  0.56035310    -0.04700
C629        C  0.34528497  0.65854788  0.56386606    -0.04500
C630        C  0.30686704  0.65673296  0.01006095    -0.03900
C631        C  0.35739780  0.71386786  0.00913484    -0.04700
C632        C  0.35278808  0.65895657  0.00846538    -0.04500
C633        C  0.27738075  0.64550290  0.99536452    -0.29900
N634        N  0.26161750  0.64194569  0.03656171     0.16600
C635        C  0.27188381  0.64874790  0.57154659    -0.29900
H636        H  0.26417248  0.64840944  0.60870573     0.18500
C637        C  0.37759860  0.74895059  0.99544992    -0.28900
N638        N  0.38441444  0.77036462  0.53559800     0.15300
C639        C  0.37221293  0.75130374  0.57601854    -0.28900
C640        C  0.36751038  0.64379511  0.99251972    -0.29200
N641        N  0.37845378  0.63780880  0.03303296     0.15800
H642        H  0.37081361  0.63839092  0.95449792     0.18400
C643        C  0.36555096  0.65114171  0.58022339    -0.29200
H644        H  0.37489134  0.65529984  0.61764708     0.18400
H645        H  0.37702835  0.76292414  0.61387765     0.18400
H646        H  0.26870708  0.64236126  0.95767911     0.18500
H647        H  0.38429595  0.75777738  0.95854830     0.18400
C648        C  0.33928297  0.68434211  0.83676908     0.32300
C649        C  0.33747122  0.67439267  0.73447463     0.32300
C650        C  0.30675431  0.65959066  0.81079541    -0.03900
C651        C  0.35431567  0.71835350  0.80797905    -0.04700
C652        C  0.35566382  0.66796316  0.81605641    -0.04500
C653        C  0.30584284  0.65460476  0.75885394    -0.03900
C654        C  0.35372118  0.71350735  0.75618783    -0.04700
C655        C  0.35452519  0.66263762  0.76425709    -0.04500
C656        C  0.27523514  0.63625408  0.74242484    -0.29900
N657        N  0.25786866  0.62996834  0.78254826     0.16600
C658        C  0.27667472  0.64411280  0.82437049    -0.29900
H659        H  0.26922413  0.64476968  0.86141699     0.18500
C660        C  0.37043949  0.74735353  0.73858983    -0.28900
N661        N  0.38056394  0.77195067  0.77793042     0.15300
C662        C  0.37111142  0.75484679  0.82036050    -0.28900
C663        C  0.37109778  0.64881096  0.75338704    -0.29200
N664        N  0.38203838  0.64570978  0.79672285     0.15800
H665        H  0.37521454  0.64188951  0.71680970     0.18400
C666        C  0.37298290  0.65743413  0.83511384    -0.29200
H667        H  0.37892381  0.65861601  0.87384456     0.18400
H668        H  0.37697307  0.76818892  0.85734319     0.18400
H669        H  0.26645740  0.62967927  0.70415807     0.18500
H670        H  0.37581229  0.75385006  0.70049823     0.18400
C671        C  0.10194305  0.55926367  0.53482424     0.78800
Tb672      Tb  0.46802941  0.52210518  0.55545732     1.80700
O673        O  0.09063081  0.56109108  0.57480009    -0.49300
O674        O  0.06119391  0.97869407  0.58223471    -0.56700
C675        C  0.03655993  0.58300688  0.56442421     0.94600
O676        O  0.46145946  0.56548984  0.58990345    -0.56200
Tb677      Tb  0.03850893  0.51311417  0.55262166     1.78100
O678        O  0.42791406  0.98184157  0.52551023    -0.56700
O679        O  0.00204965  0.96159443  0.56200244    -0.75500
O680        O  0.04469515  0.56674916  0.53707868    -0.74900
O681        O  0.02355279  0.50197872  0.97707246    -0.60100
C682        C  0.47974386  0.95029668  0.54664533     0.94200
O683        O  0.48119091  0.51119248  0.63134666    -0.72100
C684        C  0.40340176  0.47538180  0.56752343     0.77600
C685        C  0.06692507  0.96783878  0.54288862     0.78600
O686        O  0.08178474  0.53576275  0.50263485    -0.57300
O687        O  0.06272213  0.97906619  0.50441584    -0.49300
O688        O  0.99747444  0.52647825  0.97479580    -0.75300
O689        O  0.02867364  0.52725763  0.63020069    -0.59300
C690        C  0.00281312  0.50809267  0.65029503     0.92400
C691        C  0.01021338  0.51304060  0.95384324     0.93600
C692        C  0.45618261  0.56666598  0.03944579     0.78000
O693        O  0.42334628  0.48920684  0.60330886    -0.48700
O694        O  0.45861106  0.54978969  0.00354682    -0.49800
O695        O  0.47059687  0.96668929  0.57109635    -0.62700
O696        O  0.01232428  0.56610235  0.58932566    -0.63800
C697        C  0.10543083  0.54857989  0.78561668     0.78800
Tb698      Tb  0.47702640  0.52603925  0.81064765     1.80700
O699        O  0.09387985  0.54672501  0.82693305    -0.49300
O700        O  0.06321733  0.97877559  0.84043557    -0.56700
C701        C  0.04160328  0.57507419  0.80626243     0.94600
O702        O  0.46968769  0.56828145  0.84818454    -0.56200
Tb703      Tb  0.04157167  0.50319119  0.80031896     1.78100
O704        O  0.42842285  0.98201257  0.77768434    -0.56700
O705        O  0.00703191  0.96030679  0.76276794    -0.75500
O706        O  0.05154356  0.55915650  0.82665815    -0.74900
O707        O  0.02865345  0.51529261  0.72522368    -0.60100
C708        C  0.47629593  0.95047635  0.78998959     0.94200
O709        O  0.50760792  0.54415014  0.88331363    -0.72100
C710        C  0.41344935  0.47872411  0.82568624     0.77600
C711        C  0.07080844  0.96815840  0.80313844     0.78600
O712        O  0.08540581  0.52911557  0.75084636    -0.57300
O713        O  0.06806832  0.97892745  0.76301626    -0.49300
O714        O  0.97723577  0.48817221  0.72407112    -0.75300
O715        O  0.02047027  0.49549174  0.87807815    -0.59300
C716        C  0.00889085  0.50993403  0.90015765     0.91000
C717        C  0.00288196  0.50348662  0.70286113     0.93600
C718        C  0.45852691  0.57197290  0.80977700     0.78000
O719        O  0.43359833  0.49757986  0.86058793    -0.48700
O720        O  0.45809224  0.55455773  0.77154162    -0.49800
O721        O  0.46935846  0.96986878  0.77197643    -0.62700
O722        O  0.01534882  0.55795194  0.78273585    -0.63800
C723        C  0.18314761  0.85134154  0.51371573     0.32300
C724        C  0.18273943  0.85892136  0.61601357     0.32300
C725        C  0.17281818  0.87486690  0.53430327    -0.03900
C726        C  0.16139622  0.81650026  0.53984341    -0.04700
C727        C  0.21427320  0.86813230  0.54256528    -0.04500
C728        C  0.17302431  0.87894367  0.58645217    -0.03900
C729        C  0.16096778  0.82024031  0.59160688    -0.04700
C730        C  0.21423425  0.87207679  0.59431631    -0.04500
C731        C  0.15554757  0.89164452  0.59764777    -0.29900
N732        N  0.14486525  0.89544660  0.55471282     0.16600
C733        C  0.15415817  0.88417469  0.51615180    -0.29900
H734        H  0.14577912  0.88045389  0.47816007     0.18500
C735        C  0.14056407  0.78605620  0.60724481    -0.28900
N736        N  0.12903064  0.76218889  0.56674104     0.15300
C737        C  0.14147115  0.78023470  0.52547076    -0.28900
C738        C  0.24422347  0.88731144  0.61223839    -0.29200
N739        N  0.26199199  0.89242055  0.57296298     0.15800
H740        H  0.25251106  0.89419794  0.65074697     0.18400
C741        C  0.24406847  0.88085390  0.53041030    -0.29200
H742        H  0.25216440  0.88170990  0.49343882     0.18400
H743        H  0.13664454  0.76781523  0.48803807     0.18400
H744        H  0.14918032  0.89536162  0.63425762     0.18500
H745        H  0.13477692  0.77890748  0.64508660     0.18400
C746        C  0.18186383  0.84707092  0.76303969     0.32300
C747        C  0.18115214  0.85074472  0.86598132     0.32300
C748        C  0.17042919  0.86865840  0.78680443    -0.03900
C749        C  0.16090666  0.81090895  0.78698942    -0.04700
C750        C  0.21323472  0.86408645  0.79146325    -0.04500
C751        C  0.17041261  0.87062335  0.83902562    -0.03900
C752        C  0.16055689  0.81291634  0.83882927    -0.04700
C753        C  0.21339107  0.86646943  0.84363137    -0.04500
C754        C  0.15391711  0.88408340  0.85284370    -0.29900
N755        N  0.14377497  0.89002352  0.81129042     0.16600
C756        C  0.15274772  0.87985002  0.77099183    -0.29900
H757        H  0.14493159  0.87847089  0.73339332     0.18500
C758        C  0.14083905  0.77812337  0.85281863    -0.28900
N759        N  0.12945655  0.75525006  0.81127843     0.15300
C760        C  0.14143168  0.77474363  0.77089201    -0.28900
C761        C  0.24415200  0.88306227  0.85976422    -0.29200
N762        N  0.26158228  0.88942096  0.81970964     0.15800
H763        H  0.25394805  0.89078786  0.89729443     0.18400
C764        C  0.24312982  0.87812471  0.77790747    -0.29200
H765        H  0.25087859  0.87991044  0.74048163     0.18400
H766        H  0.13670849  0.76339960  0.73286336     0.18400
H767        H  0.14804346  0.88723544  0.89009293     0.18500
H768        H  0.13561296  0.76997621  0.89039476     0.18400
C769        C  0.17652866  0.84999039  0.92273817    -0.14100
C770        C  0.18458025  0.84533299  0.45723919    -0.29300
H771        H  0.15368811  0.84152919  0.93402284     0.14900
H772        H  0.18696651  0.82421629  0.44472632     0.15500
C773        C  0.18226891  0.86388185  0.67292092    -0.14100
C774        C  0.18360891  0.84357594  0.70593151    -0.29300
H775        H  0.18124939  0.88562387  0.68684326     0.14900
H776        H  0.18710611  0.82370670  0.69148941     0.15500
C777        C  0.11014341  0.71734660  0.81074687    -0.16200
C778        C  0.09418802  0.68478467  0.81090988     0.07900
C779        C  0.07615342  0.64661534  0.81078491     0.09700
C780        C  0.06074974  0.61401770  0.80952866    -0.17000
C781        C  0.38207083  0.95274419  0.82242430    -0.16200
C782        C  0.35404602  0.93618513  0.82338310     0.07900
C783        C  0.32137191  0.91880405  0.82276323     0.09700
C784        C  0.29369878  0.90506904  0.82142562    -0.17000
C785        C  0.12565410  0.90315754  0.81011573    -0.16200
C786        C  0.11092693  0.91555129  0.80912930     0.07900
C787        C  0.09505796  0.93180056  0.80779578     0.09700
C788        C  0.08292902  0.94725333  0.80614762    -0.17000
C789        C  0.10848846  0.72456896  0.56754259    -0.16200
C790        C  0.09120566  0.69216516  0.56793566     0.07900
C791        C  0.07158366  0.65417055  0.56779442     0.09700
C792        C  0.05533778  0.62168538  0.56687663    -0.17000
C793        C  0.29400975  0.90787028  0.57527215    -0.16200
C794        C  0.32161744  0.92156568  0.57543457     0.07900
C795        C  0.35411324  0.93870397  0.57368688     0.09700
C796        C  0.38195559  0.95473551  0.57104731    -0.17000
C797        C  0.12548924  0.90689501  0.55080021    -0.16200
C798        C  0.10958982  0.91777186  0.54748453     0.07900
C799        C  0.09230336  0.93236305  0.54420733     0.09700
C800        C  0.07929231  0.94690401  0.54256680    -0.17000
C801        C  0.44553784  0.59208358  0.80982184    -0.16200
C802        C  0.43220594  0.60614880  0.80820135     0.07900
C803        C  0.41509212  0.62077558  0.80480607     0.09700
C804        C  0.39994180  0.63248724  0.80116716    -0.17000
C805        C  0.39970335  0.80943490  0.77580245    -0.16200
C806        C  0.41654297  0.84179421  0.77575771     0.07900
C807        C  0.43681225  0.87971910  0.77833230     0.09700
C808        C  0.45461935  0.91210866  0.78261915    -0.17000
C809        C  0.13839842  0.56930083  0.77977033    -0.16200
C810        C  0.16614573  0.58472647  0.77824966     0.07900
C811        C  0.19845829  0.60112999  0.77903067     0.09700
C812        C  0.22592815  0.61445414  0.78062011    -0.17000
C813        C  0.44322816  0.58618980  0.03407196    -0.16200
C814        C  0.42948212  0.59953640  0.03183668     0.07900
C815        C  0.41175366  0.61319943  0.03132950     0.09700
C816        C  0.39627311  0.62446974  0.03197884    -0.17000
C817        C  0.40488718  0.80817273  0.53623560    -0.16200
C818        C  0.42230806  0.84070756  0.53696528     0.07900
C819        C  0.44255678  0.87887317  0.53872502     0.09700
C820        C  0.45966361  0.91147122  0.54151308    -0.17000
C821        C  0.22214070  0.62369434  0.52683626    -0.16200
C822        C  0.19483272  0.61128449  0.52543047     0.07900
C823        C  0.16259265  0.59544599  0.52563460     0.09700
C824        C  0.13488613  0.58019676  0.52812613    -0.17000
C825        C  0.33394154  0.66746290  0.92674475    -0.14100
C826        C  0.34096484  0.69176115  0.89338298    -0.29300
H827        H  0.32463462  0.64014477  0.91244081     0.14900
H828        H  0.34790416  0.71812404  0.90677016     0.15500
C829        C  0.33245657  0.68500227  0.64335848    -0.14100
C830        C  0.33652872  0.66748481  0.67769687    -0.29300
H831        H  0.32766879  0.70397987  0.65654586     0.14900
H832        H  0.33805802  0.64588477  0.66508594     0.15500
C833        C  0.85042898  0.17494074  0.06480604     0.32300
C834        C  0.83741293  0.16433332  0.46091600     0.32300
C835        C  0.81751784  0.15155269  0.03842546    -0.03900
C836        C  0.86493289  0.21128882  0.04260653    -0.04700
C837        C  0.86693821  0.16086913  0.03769871    -0.04500
C838        C  0.80714356  0.14204706  0.48918766    -0.03900
C839        C  0.85183742  0.20298423  0.48304529    -0.04700
C840        C  0.85786862  0.15545606  0.48588404    -0.04500
C841        C  0.77695435  0.12937066  0.47641837    -0.29900
N842        N  0.76206459  0.12635835  0.51837008     0.16600
C843        C  0.78862109  0.14155520  0.05290878    -0.29900
H844        H  0.78194184  0.14308019  0.09016804     0.18500
C845        C  0.86469998  0.23645256  0.46548718    -0.28900
N846        N  0.88920565  0.26741415  0.02203521     0.15300
C847        C  0.88057245  0.24667583  0.06098761    -0.28900
C848        C  0.87416445  0.14219825  0.47039530    -0.29200
N849        N  0.88727938  0.13928653  0.51112752     0.15800
H850        H  0.87606452  0.13481676  0.43251559     0.18400
C851        C  0.88420028  0.14898288  0.05156614    -0.29200
H852        H  0.88947270  0.14636966  0.08905151     0.18400
H853        H  0.88587961  0.25676737  0.09961421     0.18400
H854        H  0.76740757  0.12596025  0.43931495     0.18500
H855        H  0.86678536  0.24262643  0.42703742     0.18400
C856        C  0.84692678  0.17143914  0.31359105     0.32300
C857        C  0.83909393  0.16456346  0.21133854     0.32300
C858        C  0.81276601  0.14820485  0.29243206    -0.03900
C859        C  0.86081126  0.20655712  0.28787073    -0.04700
C860        C  0.86107957  0.15475250  0.28465204    -0.04500
C861        C  0.80903856  0.14439100  0.24022735    -0.03900
C862        C  0.85673182  0.20321578  0.23604875    -0.04700
C863        C  0.85703448  0.15125768  0.23290255    -0.04500
C864        C  0.77931903  0.13364473  0.22830341    -0.29900
N865        N  0.76491688  0.13070068  0.27077969     0.16600
C866        C  0.78516584  0.14085453  0.30980335    -0.29900
H867        H  0.78071443  0.14520649  0.34755644     0.18500
C868        C  0.87027729  0.23748077  0.22108108    -0.28900
N869        N  0.88238262  0.26099113  0.26205475     0.15300
C870        C  0.87684835  0.24261135  0.30287786    -0.28900
C871        C  0.87138025  0.13621891  0.21421733    -0.29200
N872        N  0.88401445  0.13065831  0.25290107     0.15800
H873        H  0.87267044  0.12992475  0.17549528     0.18400
C874        C  0.87796463  0.14178523  0.29602356    -0.29200
H875        H  0.88538612  0.14064020  0.33276649     0.18400
H876        H  0.88391354  0.25465720  0.34057741     0.18400
H877        H  0.76964823  0.13083139  0.19152524     0.18500
H878        H  0.87115189  0.24480694  0.18349052     0.18400
C879        C  0.62075368  0.06585049  0.03666979     0.78800
Tb880      Tb  0.98066658  0.01635396  0.04799291     1.80700
O881        O  0.61089182  0.06906866  0.07749350    -0.49300
O882        O  0.55827546  0.48855229  0.10479884    -0.56700
C883        C  0.55739952  0.09327149  0.06625194     0.94600
O884        O  0.97418391  0.06176818  0.07057936    -0.56200
Tb885      Tb  0.55748864  0.02247721  0.05907774     1.78100
O886        O  0.92154153  0.47847633  0.01351138    -0.56700
O887        O  0.49666132  0.46569767  0.06831963    -0.75500
O888        O  0.56600467  0.07682180  0.08878174    -0.74900
O889        O  0.53960464  0.02920113  0.48291554    -0.60100
C890        C  0.97428131  0.44682636  0.04289863     0.94200
O891        O  0.99153351  0.00232883  0.12247237    -0.72100
C892        C  0.91727923  0.97392322  0.06817754     0.77600
C893        C  0.55921428  0.47040936  0.06888240     0.78600
O894        O  0.59924294  0.04263239  0.00592716    -0.57300
O895        O  0.55211736  0.47545225  0.02725517    -0.49300
O896        O  0.48884973  0.00621374  0.47954407    -0.75300
O897        O  0.52998704  0.00725649  0.13159417    -0.59300
C898        C  0.51934745  0.02195878  0.15596990     0.92400
C899        C  0.51421169  0.01707476  0.45910432     0.93600
C900        C  0.95928428  0.06125961  0.52427535     0.78000
O901        O  0.93855205  0.99587664  0.10000473    -0.48700
O902        O  0.95816581  0.03928442  0.49244915    -0.49800
O903        O  0.96550871  0.46305986  0.02028208    -0.62700
O904        O  0.53184230  0.07665898  0.04083409    -0.63800
C905        C  0.61508475  0.06005134  0.29136525     0.78800
Tb906      Tb  0.97895080  0.01569514  0.29375291     1.80700
O907        O  0.60406903  0.05958506  0.33285219    -0.49300
O908        O  0.55544640  0.48980813  0.35449412    -0.56700
C909        C  0.55008761  0.08645738  0.31800654     0.94600
O910        O  0.97106658  0.06083206  0.30490015    -0.56200
Tb911      Tb  0.55130220  0.01554052  0.30810107     1.78100
O912        O  0.91164290  0.46605763  0.27143063    -0.56700
O913        O  0.49713982  0.46698357  0.27051773    -0.75500
O914        O  0.55992767  0.07057906  0.29451915    -0.74900
O915        O  0.52850327  0.00421790  0.22904124    -0.60100
C916        C  0.96582055  0.44007066  0.28747465     0.94200
O917        O  0.00387776  0.03205553  0.37224120    -0.72100
C918        C  0.91651461  0.97490015  0.31953459     0.77600
C919        C  0.55847645  0.47367384  0.31822852     0.78600
O920        O  0.59454953  0.03954241  0.25760978    -0.57300
O921        O  0.55196899  0.47932380  0.27665435    -0.49300
O922        O  0.50473432  0.03156743  0.23313378    -0.75300
O923        O  0.54046916  0.02993939  0.38531248    -0.59300
C924        C  0.51446238  0.01582060  0.40532311     0.91000
C925        C  0.51758331  0.01926180  0.20920094     0.93600
C926        C  0.95939383  0.05657236  0.26204397     0.78000
O927        O  0.93882994  0.99829899  0.34911016    -0.48700
O928        O  0.95894478  0.03342776  0.23356470    -0.49800
O929        O  0.95652463  0.45501755  0.31489134    -0.62700
O930        O  0.52490768  0.06962176  0.34059468    -0.63800
C931        C  0.67664755  0.36171238  0.01940807     0.32300
C932        C  0.68404749  0.36920643  0.12175520     0.32300
C933        C  0.66171855  0.37756832  0.04753890    -0.03900
C934        C  0.66335895  0.32687797  0.04550761    -0.04700
C935        C  0.71076280  0.38602366  0.04083415    -0.04500
C936        C  0.66541728  0.38142480  0.09932931    -0.03900
C937        C  0.66729838  0.33062333  0.09733345    -0.04700
C938        C  0.71430809  0.39014310  0.09322022    -0.04500
C939        C  0.64899249  0.39416449  0.11683606    -0.29900
N940        N  0.63554010  0.39782726  0.07725324     0.16600
C941        C  0.64309053  0.38787712  0.03488858    -0.29900
H942        H  0.63505303  0.38744571  0.99780602     0.18500
C943        C  0.65353109  0.29653334  0.11302517    -0.28900
N944        N  0.64133894  0.27263985  0.07249968     0.15300
C945        C  0.64704796  0.29064682  0.03118916    -0.28900
C946        C  0.74396756  0.40078409  0.10550106    -0.29200
N947        N  0.75846784  0.40334639  0.06327568     0.15800
H948        H  0.75338075  0.40338434  0.14242828     0.18400
C949        C  0.73834649  0.39301895  0.02402023    -0.29200
H950        H  0.74271671  0.38796121  0.98657162     0.18400
H951        H  0.63967306  0.27821326  0.99370213     0.18400
H952        H  0.64644924  0.39962285  0.15527970     0.18500
H953        H  0.65228417  0.28952294  0.15085699     0.18400
C954        C  0.67035718  0.35649752  0.26765382     0.32300
C955        C  0.67009494  0.35655777  0.37034533     0.32300
C956        C  0.65415396  0.37119823  0.29415037    -0.03900
C957        C  0.65475085  0.31971733  0.28946620    -0.04700
C958        C  0.70290708  0.37894751  0.29519316    -0.04500
C959        C  0.65402315  0.37124042  0.34579485    -0.03900
C960        C  0.65473737  0.32001019  0.34122047    -0.04700
C961        C  0.70292008  0.37897539  0.34796935    -0.04500
C962        C  0.63766848  0.38437873  0.36170420    -0.29900
N963        N  0.62831944  0.39248263  0.32141616     0.16600
C964        C  0.63803535  0.38448420  0.27993289    -0.29900
H965        H  0.63366023  0.38805206  0.24245188     0.18500
C966        C  0.63932041  0.28503865  0.35341448    -0.28900
N967        N  0.63004808  0.26367536  0.31080415     0.15300
C968        C  0.63907454  0.28416759  0.27140819    -0.28900
C969        C  0.73186396  0.38801513  0.36310072    -0.29200
N970        N  0.74915211  0.39463402  0.32291225     0.15800
H971        H  0.73923730  0.38684330  0.39967327     0.18400
C972        C  0.73161245  0.38787029  0.28160781    -0.29200
H973        H  0.73852642  0.38634780  0.24451515     0.18400
H974        H  0.63432128  0.27388786  0.23292208     0.18400
H975        H  0.63275907  0.38770266  0.39954431     0.18500
H976        H  0.63493846  0.27568775  0.39042996     0.18400
C977        C  0.66467973  0.35290524  0.42673599    -0.14100
C978        C  0.66973902  0.35608119  0.96265163    -0.29300
H979        H  0.64055020  0.33573702  0.43690011     0.14900
H980        H  0.64592952  0.33505543  0.94951419     0.15500
C981        C  0.68910903  0.37417253  0.17869675    -0.14100
C982        C  0.66644601  0.35395247  0.21049381    -0.29300
H983        H  0.71222915  0.39545110  0.19359179     0.14900
H984        H  0.64295853  0.33433098  0.19470462     0.15500
C985        C  0.61341320  0.22616938  0.30886351    -0.16200
C986        C  0.59914607  0.19407496  0.31041461     0.07900
C987        C  0.58238402  0.15676447  0.31470025     0.09700
C988        C  0.56777000  0.12475760  0.31766382    -0.17000
C989        C  0.86587475  0.44186034  0.31730333    -0.16200
C990        C  0.83826668  0.42776110  0.32032762     0.07900
C991        C  0.80638786  0.41405025  0.32262085     0.09700
C992        C  0.77969926  0.40431834  0.32335646    -0.17000
C993        C  0.61181596  0.40755812  0.32272775    -0.16200
C994        C  0.59797183  0.42095724  0.32400873     0.07900
C995        C  0.58239914  0.43741553  0.32460311     0.09700
C996        C  0.57025375  0.45274517  0.32320119    -0.17000
C997        C  0.62492089  0.23508322  0.07307682    -0.16200
C998        C  0.61050981  0.20269743  0.07275391     0.07900
C999        C  0.59295034  0.16463796  0.07132258     0.09700
C1000       C  0.57719248  0.13208137  0.06942188    -0.17000
C1001       C  0.78866900  0.41236299  0.06087634    -0.16200
C1002       C  0.81509930  0.42151130  0.05916823     0.07900
C1003       C  0.84678338  0.43476065  0.05744513     0.09700
C1004       C  0.87438698  0.44881650  0.05592661    -0.17000
C1005       C  0.61604772  0.40904099  0.07936817    -0.16200
C1006       C  0.59967092  0.41922027  0.07952905     0.07900
C1007       C  0.58218067  0.43330087  0.07756031     0.09700
C1008       C  0.56978318  0.44826771  0.07435952    -0.17000
C1009       C  0.94567898  0.07449823  0.24895535    -0.16200
C1010       C  0.93222375  0.08822208  0.24471620     0.07900
C1011       C  0.91545801  0.10339433  0.24551035     0.09700
C1012       C  0.90093124  0.11602485  0.24871469    -0.17000
C1013       C  0.89834741  0.29853107  0.26278328    -0.16200
C1014       C  0.91260292  0.33094862  0.26576576     0.07900
C1015       C  0.93027916  0.36898920  0.27204706     0.09700
C1016       C  0.94618787  0.40145654  0.27873624    -0.17000
C1017       C  0.64801970  0.08042202  0.28408719    -0.16200
C1018       C  0.67556867  0.09509931  0.27976178     0.07900
C1019       C  0.70751646  0.10982677  0.27616145     0.09700
C1020       C  0.73430905  0.12034666  0.27369775    -0.17000
C1021       C  0.94766649  0.08191157  0.51479353    -0.16200
C1022       C  0.93558444  0.09720169  0.51096306     0.07900
C1023       C  0.91961860  0.11321489  0.50994611     0.09700
C1024       C  0.90496147  0.12564775  0.51048708    -0.17000
C1025       C  0.90657488  0.30514509  0.02578695    -0.16200
C1026       C  0.92175095  0.33761897  0.02939014     0.07900
C1027       C  0.93979601  0.37565578  0.03378414     0.09700
C1028       C  0.95539699  0.40815316  0.03771829    -0.17000
C1029       C  0.73936848  0.12276656  0.01307198    -0.16200
C1030       C  0.71252923  0.11230510  0.01585553     0.07900
C1031       C  0.68076802  0.09846364  0.02127286     0.09700
C1032       C  0.65348072  0.08494959  0.02734693    -0.17000
C1033       C  0.83212781  0.15699327  0.40412446    -0.14100
C1034       C  0.85355874  0.17687753  0.37044764    -0.29300
H1035       H  0.80930849  0.13391245  0.39060382     0.14900
H1036       H  0.87713758  0.19833860  0.38411893     0.15500
C1037       C  0.85540752  0.17847811  0.12184029    -0.14100
C1038       C  0.83328622  0.15909949  0.15463307    -0.29300
H1039       H  0.87911495  0.19831025  0.13662380     0.14900
H1040       H  0.81004501  0.13755300  0.14071821     0.15500
C1041       C  0.84391546  0.17449732  0.56329192     0.32300
C1042       C  0.84916153  0.17393050  0.96208176     0.32300
C1043       C  0.81045676  0.14745538  0.54141604    -0.03900
C1044       C  0.85522150  0.20801249  0.53491369    -0.04700
C1045       C  0.86123105  0.16056945  0.53786381    -0.04500
C1046       C  0.81674131  0.15099574  0.98568185    -0.03900
C1047       C  0.86432379  0.21086419  0.99083200    -0.04700
C1048       C  0.86636656  0.16033730  0.98601394    -0.04500
C1049       C  0.78723454  0.14065405  0.97138676    -0.29900
N1050       N  0.77029807  0.13367030  0.01216311     0.16600
C1051       C  0.78229522  0.13829247  0.55788215    -0.29900
H1052       H  0.77787905  0.14367907  0.59505172     0.18500
C1053       C  0.87961310  0.24612551  0.97907477    -0.28900
N1054       N  0.87565019  0.26111843  0.50508270     0.15300
C1055       C  0.87004710  0.24423514  0.54741876    -0.28900
C1056       C  0.88343172  0.14813391  0.96968394    -0.29200
N1057       N  0.89397021  0.14126240  0.00991022     0.15800
H1058       H  0.88805264  0.14474996  0.93161080     0.18400
C1059       C  0.87961668  0.15027590  0.55246056    -0.29200
H1060       H  0.88655726  0.15028785  0.59018133     0.18400
H1061       H  0.87718063  0.25766377  0.58438922     0.18400
H1062       H  0.77926538  0.14116116  0.93485215     0.18500
H1063       H  0.88397115  0.25571094  0.94224613     0.18400
C1064       C  0.83448600  0.15925179  0.81285097     0.32300
C1065       C  0.83890805  0.16084325  0.71046985     0.32300
C1066       C  0.80365846  0.13704426  0.78162547    -0.03900
C1067       C  0.85068530  0.19659082  0.79227552    -0.04700
C1068       C  0.85261987  0.14592418  0.78925317    -0.04500
C1069       C  0.80587310  0.13775167  0.73000947    -0.03900
C1070       C  0.85338570  0.19786351  0.74030065    -0.04700
C1071       C  0.85478689  0.14673140  0.73758280    -0.04500
C1072       C  0.77663711  0.12408238  0.71016065    -0.29900
N1073       N  0.75708028  0.11495709  0.74779004     0.16600
C1074       C  0.77322915  0.12317271  0.79146703    -0.29900
H1075       H  0.76397626  0.12158449  0.82766723     0.18500
C1076       C  0.87099913  0.23413127  0.73155072    -0.28900
N1077       N  0.87802747  0.25382749  0.77547474     0.15300
C1078       C  0.86593299  0.23145647  0.81272680    -0.28900
C1079       C  0.87278300  0.13526367  0.72418583    -0.29200
N1080       N  0.88148360  0.12768648  0.76590686     0.15800
H1081       H  0.87949408  0.13316300  0.68708547     0.18400
C1082       C  0.86935797  0.13393966  0.80575708    -0.29200
H1083       H  0.87285022  0.13049984  0.84382442     0.18400
H1084       H  0.86880567  0.24006234  0.85176944     0.18400
H1085       H  0.77044955  0.12297129  0.67170159     0.18500
H1086       H  0.87946812  0.24610631  0.69672812     0.18400
C1087       C  0.61474790  0.06414007  0.53991823     0.78800
Tb1088     Tb  0.97563351  0.01558181  0.54691725     1.80700
O1089       O  0.60467725  0.06790469  0.58014143    -0.49300
O1090       O  0.55539215  0.48711558  0.58872693    -0.56700
C1091       C  0.55278010  0.09209947  0.56132691     0.94600
O1092       O  0.96981125  0.06185619  0.56641416    -0.56200
Tb1093     Tb  0.55183320  0.02072506  0.56116306     1.78100
O1094       O  0.91135996  0.47181071  0.53984295    -0.56700
O1095       O  0.49181183  0.46632018  0.57071455    -0.75500
O1096       O  0.56123669  0.07647275  0.58644626    -0.74900
O1097       O  0.54397677  0.03211941  0.98238083    -0.60100
C1098       C  0.96338087  0.44043816  0.53089677     0.94200
O1099       O  0.98818255  0.00323978  0.62196113    -0.72100
C1100       C  0.91268954  0.97210530  0.57074319     0.77600
C1101       C  0.55589876  0.47119455  0.54956079     0.78600
O1102       O  0.59367431  0.04020363  0.50928760    -0.57300
O1103       O  0.54632916  0.47685954  0.51109228    -0.49300
O1104       O  0.49315032  0.00934261  0.98087872    -0.75300
O1105       O  0.52441465  0.00671074  0.63330586    -0.59300
C1106       C  0.51524605  0.02319713  0.65710148     0.92400
C1107       C  0.51841268  0.02087860  0.95964619     0.93600
C1108       C  0.96680560  0.06458290  0.02772386     0.78000
O1109       O  0.93431038  0.99597827  0.60073795    -0.48700
O1110       O  0.96792692  0.04505276  0.99436879    -0.49800
O1111       O  0.95261596  0.45812180  0.52198200    -0.62700
O1112       O  0.52735019  0.07444378  0.53556791    -0.63800
C1113       C  0.61034827  0.05292251  0.76853756     0.78800
Tb1114     Tb  0.97670922  0.01075744  0.79668449     1.80700
O1115       O  0.60566647  0.05880095  0.81244810    -0.49300
O1116       O  0.55969681  0.49079917  0.85615360    -0.56700
C1117       C  0.55369392  0.09232682  0.82715999     0.94600
O1118       O  0.97058112  0.05593477  0.82316440    -0.56200
Tb1119     Tb  0.55108515  0.01787246  0.80668942     1.78100
O1120       O  0.91882399  0.46283343  0.76256886    -0.56700
O1121       O  0.50149515  0.47053009  0.77303924    -0.75500
O1122       O  0.56390594  0.07633446  0.80483760    -0.74900
O1123       O  0.52508801  0.00623728  0.73033678    -0.60100
C1124       C  0.96962845  0.43387504  0.79632766     0.94200
O1125       O  0.00339328  0.02670169  0.87324086    -0.72100
C1126       C  0.91305862  0.96651432  0.81579621     0.77600
C1127       C  0.56432830  0.47485425  0.82179134     0.78600
O1128       O  0.58566204  0.03091444  0.74240641    -0.57300
O1129       O  0.56057562  0.48167145  0.77907494    -0.49300
O1130       O  0.50717645  0.03972652  0.73626609    -0.75300
O1131       O  0.54354609  0.03492539  0.88461833    -0.59300
C1132       C  0.51802746  0.02119003  0.90591557     0.91000
C1133       C  0.51603191  0.02335526  0.71098504     0.93600
C1134       C  0.95911317  0.05627864  0.78239458     0.78000
O1135       O  0.93430095  0.98451608  0.84949180    -0.48700
O1136       O  0.95762219  0.03533232  0.74814514    -0.49800
O1137       O  0.96298079  0.45148077  0.82410312    -0.62700
O1138       O  0.52672277  0.07579827  0.84442155    -0.63800
C1139       C  0.68010507  0.36571742  0.52000260     0.32300
C1140       C  0.67248253  0.36498901  0.62154154     0.32300
C1141       C  0.66399287  0.38242710  0.54044659    -0.03900
C1142       C  0.66058032  0.32808969  0.54097178    -0.04700
C1143       C  0.70987098  0.38545992  0.55370075    -0.04500
C1144       C  0.66010752  0.38197726  0.59170898    -0.03900
C1145       C  0.65658684  0.32780853  0.59254756    -0.04700
C1146       C  0.70614067  0.38527510  0.60497558    -0.04500
C1147       C  0.64331741  0.39552466  0.60181671    -0.29900
N1148       N  0.63720777  0.40421448  0.55860525     0.16600
C1149       C  0.64968396  0.39652829  0.52093195    -0.29900
H1150       H  0.64767048  0.39996406  0.48229629     0.18500
C1151       C  0.63978946  0.29236987  0.60407617    -0.28900
N1152       N  0.63355651  0.27138529  0.56166821     0.15300
C1153       C  0.64604340  0.29265671  0.52298456    -0.28900
C1154       C  0.73496596  0.40024173  0.62754279    -0.29200
N1155       N  0.75553539  0.40878149  0.59162666     0.15800
H1156       H  0.74034746  0.40330535  0.66675424     0.18400
C1157       C  0.74063822  0.39988949  0.54659459    -0.29200
H1158       H  0.75113571  0.40184585  0.51150093     0.18400
H1159       H  0.64508820  0.28311000  0.48492485     0.18400
H1160       H  0.63514861  0.39776069  0.63751579     0.18500
H1161       H  0.63311873  0.28257657  0.64066134     0.18400
C1162       C  0.67703703  0.35825009  0.76934930     0.32300
C1163       C  0.68482137  0.36854500  0.87178275     0.32300
C1164       C  0.66156540  0.37464613  0.79587023    -0.03900
C1165       C  0.66393945  0.32431834  0.79769722    -0.04700
C1166       C  0.71087464  0.38301899  0.79079674    -0.04500
C1167       C  0.66586074  0.37983732  0.84791875    -0.03900
C1168       C  0.66807212  0.32952663  0.84954640    -0.04700
C1169       C  0.71486426  0.38868018  0.84292900    -0.04500
C1170       C  0.64920587  0.39217389  0.86553385    -0.29900
N1171       N  0.63461870  0.39434175  0.82631505     0.16600
C1172       C  0.64149781  0.38343581  0.78391135    -0.29900
H1173       H  0.63165232  0.38119153  0.74762246     0.18500
C1174       C  0.65431475  0.29610680  0.86738305    -0.28900
N1175       N  0.64197526  0.27115524  0.82813436     0.15300
C1176       C  0.64765365  0.28782342  0.78548658    -0.28900
C1177       C  0.74405519  0.39763653  0.85497806    -0.29200
N1178       N  0.75781025  0.39824176  0.81273114     0.15800
H1179       H  0.75336087  0.39999409  0.89189228     0.18400
C1180       C  0.73765931  0.38823160  0.77382004    -0.29200
H1181       H  0.74083263  0.38103867  0.73684626     0.18400
H1182       H  0.63998155  0.27431110  0.74856868     0.18400
H1183       H  0.64739635  0.39852169  0.90398366     0.18500
H1184       H  0.65285399  0.29016843  0.90585100     0.18400
C1185       C  0.69088398  0.37568647  0.92851623    -0.14100
C1186       C  0.68669440  0.36899866  0.46418425    -0.29300
H1187       H  0.71403193  0.39831745  0.94151025     0.14900
H1188       H  0.71063097  0.38710793  0.45501900     0.15500
C1189       C  0.66860433  0.36690207  0.67815270    -0.14100
C1190       C  0.67548265  0.35161700  0.71197876    -0.29300
H1191       H  0.66210627  0.38404828  0.69156434     0.14900
H1192       H  0.68371128  0.33611561  0.69789280     0.15500
C1193       C  0.62448409  0.23375015  0.83137313    -0.16200
C1194       C  0.60895537  0.20149411  0.83364633     0.07900
C1195       C  0.59013567  0.16355540  0.83443496     0.09700
C1196       C  0.57364381  0.13103638  0.83269556    -0.17000
C1197       C  0.87049940  0.43432422  0.80167507    -0.16200
C1198       C  0.84318655  0.42151722  0.80348802     0.07900
C1199       C  0.81230889  0.41073526  0.80687569     0.09700
C1200       C  0.78682968  0.40418565  0.80987818    -0.17000
C1201       C  0.61604704  0.40692199  0.82920003    -0.16200
C1202       C  0.60119604  0.41920138  0.83146893     0.07900
C1203       C  0.58578391  0.43605959  0.83226222     0.09700
C1204       C  0.57463638  0.45256319  0.82984224    -0.17000
C1205       C  0.61767038  0.23369412  0.55914221    -0.16200
C1206       C  0.60393457  0.20132175  0.55884401     0.07900
C1207       C  0.58738715  0.16339061  0.56025465     0.09700
C1208       C  0.57239532  0.13095517  0.56151473    -0.17000
C1209       C  0.78634945  0.42043827  0.59896943    -0.16200
C1210       C  0.81284601  0.42995225  0.60194485     0.07900
C1211       C  0.84402877  0.44169377  0.60038368     0.09700
C1212       C  0.87090166  0.45362892  0.59490339    -0.17000
C1213       C  0.61860151  0.41633147  0.55353190    -0.16200
C1214       C  0.60221494  0.42634721  0.55053786     0.07900
C1215       C  0.58338607  0.43866041  0.54878957     0.09700
C1216       C  0.56898785  0.45136501  0.54851188    -0.17000
C1217       C  0.94690498  0.07674761  0.77638437    -0.16200
C1218       C  0.93391355  0.09101428  0.77257848     0.07900
C1219       C  0.91649229  0.10516957  0.76945081     0.09700
C1220       C  0.90051254  0.11585307  0.76764404    -0.17000
C1221       C  0.89653495  0.29169193  0.78148303    -0.16200
C1222       C  0.91275046  0.32428129  0.78596105     0.07900
C1223       C  0.93224030  0.36248036  0.79024069     0.09700
C1224       C  0.94920479  0.39507364  0.79325277    -0.17000
C1225       C  0.64108225  0.06812776  0.75160974    -0.16200
C1226       C  0.66769386  0.07973769  0.74385919     0.07900
C1227       C  0.69915530  0.09244480  0.74117521     0.09700
C1228       C  0.72597313  0.10288276  0.74301379    -0.17000
C1229       C  0.95572329  0.08582047  0.01857641    -0.16200
C1230       C  0.94343822  0.10076551  0.01340192     0.07900
C1231       C  0.92695298  0.11603441  0.00989957     0.09700
C1232       C  0.91192886  0.12797671  0.00901433    -0.17000
C1233       C  0.89264920  0.29869490  0.50344536    -0.16200
C1234       C  0.90808812  0.33125854  0.50549741     0.07900
C1235       C  0.92700909  0.36944245  0.51199675     0.09700
C1236       C  0.94351051  0.40190936  0.51980084    -0.17000
C1237       C  0.73182102  0.11704606  0.52018551    -0.16200
C1238       C  0.70558226  0.10826591  0.52229788     0.07900
C1239       C  0.67437915  0.09609177  0.52621299     0.09700
C1240       C  0.64728731  0.08326199  0.53130017    -0.17000
C1241       C  0.85291343  0.17622299  0.90521287    -0.14100
C1242       C  0.83002034  0.15627986  0.86935449    -0.29300
H1243       H  0.87642574  0.19525273  0.89328706     0.14900
H1244       H  0.80687529  0.13590021  0.88054518     0.15500
C1245       C  0.84742716  0.18161617  0.62043013    -0.14100
C1246       C  0.83876316  0.15621941  0.65298964    -0.29300
H1247       H  0.85573447  0.20827464  0.63469245     0.14900
H1248       H  0.82922623  0.12910255  0.63736499     0.15500
C1249       C  0.84131594  0.67655464  0.08828990     0.32300
C1250       C  0.83057949  0.66855198  0.48624978     0.32300
C1251       C  0.80758768  0.65192579  0.06542489    -0.03900
C1252       C  0.85469719  0.71130774  0.06199104    -0.04700
C1253       C  0.85705533  0.66122409  0.06146403    -0.04500
C1254       C  0.80050104  0.65330038  0.51400520    -0.03900
C1255       C  0.85163409  0.70748768  0.51011590    -0.04700
C1256       C  0.84409555  0.65069611  0.51041917    -0.04500
C1257       C  0.77015345  0.63959235  0.50093775    -0.29900
N1258       N  0.75484210  0.63496527  0.54306995     0.16600
C1259       C  0.77980514  0.64521089  0.08041161    -0.29900
H1260       H  0.77473403  0.65053085  0.11714637     0.18500
C1261       C  0.86905621  0.74181286  0.49400176    -0.28900
N1262       N  0.87985431  0.76600414  0.03541050     0.15300
C1263       C  0.87241151  0.74755770  0.07661148    -0.28900
C1264       C  0.86174316  0.63941961  0.49358076    -0.29200
N1265       N  0.87524200  0.63620017  0.53345136     0.15800
H1266       H  0.86589589  0.63584447  0.45524813     0.18400
C1267       C  0.87536559  0.65069826  0.07539898    -0.29200
H1268       H  0.88257136  0.65066948  0.11290424     0.18400
H1269       H  0.88055653  0.75971919  0.11411692     0.18400
H1270       H  0.76016079  0.63458794  0.46372131     0.18500
H1271       H  0.87160852  0.74903456  0.45600675     0.18400
C1272       C  0.83915393  0.67650747  0.33876262     0.32300
C1273       C  0.83139248  0.66963846  0.23625984     0.32300
C1274       C  0.80531569  0.65670006  0.31772155    -0.03900
C1275       C  0.85590193  0.71176384  0.31251143    -0.04700
C1276       C  0.85020789  0.65639301  0.31014435    -0.04500
C1277       C  0.80154686  0.65294307  0.26561645    -0.03900
C1278       C  0.85189995  0.70846804  0.26059822    -0.04700
C1279       C  0.84628205  0.65283338  0.25833004    -0.04500
C1280       C  0.77187921  0.64236010  0.25390999    -0.29900
N1281       N  0.75766118  0.63962842  0.29664581     0.16600
C1282       C  0.77783483  0.64921819  0.33563362    -0.29900
H1283       H  0.77329467  0.65266702  0.37371199     0.18500
C1284       C  0.86961439  0.74294722  0.24504545    -0.28900
N1285       N  0.88407948  0.76644436  0.28569159     0.15300
C1286       C  0.87600453  0.74795217  0.32693971    -0.28900
C1287       C  0.85953169  0.63633411  0.24025246    -0.29200
N1288       N  0.87117838  0.62998485  0.27952763     0.15800
H1289       H  0.86141897  0.63039983  0.20162525     0.18400
C1290       C  0.86573879  0.64206056  0.32220225    -0.29200
H1291       H  0.87333939  0.64138670  0.35905344     0.18400
H1292       H  0.88462213  0.75997786  0.36438709     0.18400
H1293       H  0.76195114  0.63896038  0.21712521     0.18500
H1294       H  0.87234589  0.75048461  0.20718500     0.18400
C1295       C  0.61047207  0.56444697  0.05112773     0.78800
Tb1296     Tb  0.97265408  0.51673536  0.04918850     1.80700
O1297       O  0.59692396  0.56122253  0.09089352    -0.49300
O1298       O  0.57524047  0.00152289  0.11796525    -0.56700
C1299       C  0.54595958  0.59191812  0.06162725     0.94600
O1300       O  0.96311768  0.55808774  0.08055712    -0.56200
Tb1301     Tb  0.54569951  0.51983009  0.05674110     1.78100
O1302       O  0.92731177  0.97170134  0.02699272    -0.56700
O1303       O  0.51144991  0.96870114  0.02571168    -0.75500
O1304       O  0.55554243  0.57519954  0.03961330    -0.74900
O1305       O  0.51325111  0.50460788  0.47425241    -0.60100
C1306       C  0.98049735  0.94506770  0.03995313     0.94200
O1307       O  0.98121407  0.50238552  0.12529440    -0.72100
C1308       C  0.90773012  0.46962794  0.05366776     0.77600
C1309       C  0.57529476  0.97925616  0.08849361     0.78600
O1310       O  0.59207557  0.54656032  0.01398177    -0.57300
O1311       O  0.56508577  0.97701694  0.04523402    -0.49300
O1312       O  0.49058127  0.53310979  0.47821070    -0.75300
O1313       O  0.53518142  0.53598665  0.13270911    -0.59300
C1314       C  0.50891507  0.52122171  0.15186231     0.92400
C1315       C  0.50203993  0.51916648  0.45416747     0.93600
C1316       C  0.95013113  0.56128965  0.54440254     0.78000
O1317       O  0.92597451  0.48272000  0.09163729    -0.48700
O1318       O  0.94934884  0.54122098  0.50955533    -0.49800
O1319       O  0.97161781  0.96171282  0.01873710    -0.62700
O1320       O  0.52009002  0.57564734  0.08258863    -0.63800
C1321       C  0.60705731  0.56817161  0.30333597     0.78800
Tb1322     Tb  0.96370924  0.50943971  0.30142150     1.80700
O1323       O  0.59289118  0.56008080  0.34320204    -0.49300
O1324       O  0.56757693  0.99067184  0.36219992    -0.56700
C1325       C  0.54207938  0.59100700  0.31114486     0.94600
O1326       O  0.95632869  0.55318434  0.33005995    -0.56200
Tb1327     Tb  0.54213334  0.52062064  0.30669591     1.78100
O1328       O  0.92513048  0.97038584  0.27808920    -0.56700
O1329       O  0.50219097  0.96062301  0.31554349    -0.75500
O1330       O  0.54935355  0.57422137  0.33605942    -0.74900
O1331       O  0.53280634  0.53435592  0.23043762    -0.60100
C1332       C  0.98128086  0.94525917  0.28976035     0.94200
O1333       O  0.98756938  0.52463595  0.38057870    -0.72100
C1334       C  0.89916835  0.46245433  0.31250224     0.77600
C1335       C  0.56777754  0.96991098  0.32976698     0.78600
O1336       O  0.58913515  0.55414067  0.26493750    -0.57300
O1337       O  0.55866989  0.97060764  0.28694845    -0.49300
O1338       O  0.48131058  0.50743391  0.22405850    -0.75300
O1339       O  0.51299930  0.50445355  0.37733572    -0.59300
C1340       C  0.50253220  0.51973810  0.40065947     0.91000
C1341       C  0.50762179  0.52108483  0.20526628     0.93600
C1342       C  0.94519953  0.55418011  0.28939741     0.78000
O1343       O  0.91865292  0.48057823  0.34845505    -0.48700
O1344       O  0.94447114  0.53431775  0.25428906    -0.49800
O1345       O  0.97061115  0.96118835  0.31033315    -0.62700
O1346       O  0.51645461  0.57480589  0.28597669    -0.63800
C1347       C  0.68862962  0.86923706  0.04402793     0.32300
C1348       C  0.68896620  0.86174100  0.14495618     0.32300
C1349       C  0.67598635  0.88594876  0.07688657    -0.03900
C1350       C  0.66921274  0.83008548  0.05983377    -0.04700
C1351       C  0.72054014  0.88571011  0.06983791    -0.04500
C1352       C  0.67558597  0.88200813  0.12803167    -0.03900
C1353       C  0.66974997  0.82667262  0.11103411    -0.04700
C1354       C  0.72072933  0.88173161  0.12085400    -0.04500
C1355       C  0.65895765  0.89417855  0.14789148    -0.29900
N1356       N  0.65070917  0.90616367  0.11085814     0.16600
C1357       C  0.66070890  0.90106507  0.06753236    -0.29900
H1358       H  0.65594429  0.90650780  0.03159405     0.18500
C1359       C  0.65145845  0.79046072  0.11828766    -0.28900
N1360       N  0.63968573  0.77180445  0.07350852     0.15300
C1361       C  0.65006812  0.79536727  0.03751095    -0.28900
C1362       C  0.75049381  0.89366611  0.13509873    -0.29200
N1363       N  0.76800684  0.90469233  0.09449664     0.15800
H1364       H  0.75844595  0.89286194  0.17158843     0.18400
C1365       C  0.75008518  0.89987094  0.05453951    -0.29200
H1366       H  0.75762967  0.90470082  0.01683461     0.18400
H1367       H  0.64378150  0.78765540  0.99836147     0.18400
H1368       H  0.65177070  0.89277144  0.18554170     0.18500
H1369       H  0.64675640  0.77848121  0.15350584     0.18400
C1370       C  0.68758489  0.86783491  0.29389538     0.32300
C1371       C  0.68684568  0.86095747  0.39509322     0.32300
C1372       C  0.67503917  0.88520766  0.32546526    -0.03900
C1373       C  0.66765050  0.82887297  0.31016636    -0.04700
C1374       C  0.71915004  0.88398013  0.32041656    -0.04500
C1375       C  0.67396307  0.88144791  0.37682952    -0.03900
C1376       C  0.66757635  0.82564722  0.36152795    -0.04700
C1377       C  0.71888194  0.88042838  0.37156068    -0.04500
C1378       C  0.65344154  0.88880658  0.39394608    -0.29900
N1379       N  0.64412465  0.89862552  0.35556689     0.16600
C1380       C  0.65657649  0.89589324  0.31371901    -0.29900
H1381       H  0.65088501  0.89916269  0.27694731     0.18500
C1382       C  0.64938388  0.78941911  0.36882076    -0.28900
N1383       N  0.63841468  0.77069391  0.32388487     0.15300
C1384       C  0.64917879  0.79419890  0.28776911    -0.28900
C1385       C  0.74887625  0.89366303  0.38691085    -0.29200
N1386       N  0.76688691  0.90505725  0.34681312     0.15800
H1387       H  0.75677763  0.89386730  0.42397030     0.18400
C1388       C  0.74907429  0.89926683  0.30612143    -0.29200
H1389       H  0.75707410  0.90458199  0.26868980     0.18400
H1390       H  0.64398234  0.78654243  0.24840494     0.18400
H1391       H  0.64406617  0.88495428  0.43037133     0.18500
H1392       H  0.64448704  0.77749050  0.40411418     0.18400
C1393       C  0.68759450  0.85561084  0.45099593    -0.14100
C1394       C  0.68889798  0.87639303  0.98890576    -0.29300
H1395       H  0.69224374  0.83659112  0.46089856     0.14900
H1396       H  0.69171427  0.90103001  0.98139794     0.15500
C1397       C  0.68985439  0.85537916  0.20027816    -0.14100
C1398       C  0.68826944  0.87446589  0.23856630    -0.29300
H1399       H  0.69255489  0.83454307  0.20876635     0.14900
H1400       H  0.68886311  0.89755898  0.23034222     0.15500
C1401       C  0.61887125  0.73285691  0.31669833    -0.16200
C1402       C  0.60183005  0.70025337  0.31302892     0.07900
C1403       C  0.58136697  0.66211475  0.31151030     0.09700
C1404       C  0.56352872  0.62964950  0.31135337    -0.17000
C1405       C  0.88422403  0.95681873  0.33075638    -0.16200
C1406       C  0.85717230  0.94377035  0.33789250     0.07900
C1407       C  0.82549733  0.92986920  0.34372318     0.09700
C1408       C  0.79843960  0.91842521  0.34628697    -0.17000
C1409       C  0.62382294  0.90873975  0.35717906    -0.16200
C1410       C  0.60770113  0.91920120  0.35474422     0.07900
C1411       C  0.59110257  0.93406676  0.34785533     0.09700
C1412       C  0.57906057  0.94900952  0.34013431    -0.17000
C1413       C  0.61941921  0.73397917  0.06657685    -0.16200
C1414       C  0.60204331  0.70138135  0.06343272     0.07900
C1415       C  0.58194543  0.66322857  0.06250171     0.09700
C1416       C  0.56520403  0.63070097  0.06247567    -0.17000
C1417       C  0.79914138  0.91674709  0.09286552    -0.16200
C1418       C  0.82594883  0.92750327  0.08966863     0.07900
C1419       C  0.85752300  0.94137363  0.08364475     0.09700
C1420       C  0.88467968  0.95490578  0.07716083    -0.17000
C1421       C  0.63289444  0.91964041  0.11504331    -0.16200
C1422       C  0.61782426  0.93159433  0.11482271     0.07900
C1423       C  0.60093276  0.94632752  0.10964980     0.09700
C1424       C  0.58791383  0.96016778  0.10177969    -0.17000
C1425       C  0.93264401  0.57423598  0.28413736    -0.16200
C1426       C  0.91961112  0.58837122  0.28021132     0.07900
C1427       C  0.90275644  0.60310895  0.27713264     0.09700
C1428       C  0.88801910  0.61536493  0.27695552    -0.17000
C1429       C  0.90531830  0.80398454  0.28525460    -0.16200
C1430       C  0.92371849  0.83630233  0.28565354     0.07900
C1431       C  0.94492041  0.87419098  0.28664105     0.09700
C1432       C  0.96221115  0.90663392  0.28769830    -0.17000
C1433       C  0.64047919  0.58942188  0.30205030    -0.16200
C1434       C  0.66826887  0.60437481  0.30172987     0.07900
C1435       C  0.70033076  0.61909336  0.30119223     0.09700
C1436       C  0.72711233  0.62944215  0.29970045    -0.17000
C1437       C  0.93904993  0.58302529  0.53859569    -0.16200
C1438       C  0.92704884  0.59849659  0.53504849     0.07900
C1439       C  0.91057735  0.61393987  0.53243249     0.09700
C1440       C  0.89482890  0.62502216  0.53198335    -0.17000
C1441       C  0.90078329  0.80365400  0.03485188    -0.16200
C1442       C  0.91943843  0.83599450  0.03501921     0.07900
C1443       C  0.94147476  0.87389190  0.03613600     0.09700
C1444       C  0.95977831  0.90633753  0.03770344    -0.17000
C1445       C  0.72997970  0.62505096  0.04128034    -0.16200
C1446       C  0.70328938  0.61481365  0.04308231     0.07900
C1447       C  0.67138460  0.60006347  0.04603938     0.09700
C1448       C  0.64373672  0.58516407  0.04860820    -0.17000
C1449       C  0.82478988  0.66237087  0.42941490    -0.14100
C1450       C  0.84615868  0.68173049  0.39546400    -0.29300
H1451       H  0.80159865  0.64005784  0.41598686     0.14900
H1452       H  0.87018159  0.70170055  0.40854998     0.15500
C1453       C  0.84737790  0.68205456  0.14544020    -0.14100
C1454       C  0.82548827  0.66393777  0.17942069    -0.29300
H1455       H  0.87135610  0.70171081  0.15902824     0.14900
H1456       H  0.80203277  0.64240810  0.16639192     0.15500
C1457       C  0.83629031  0.67591959  0.58899180     0.32300
C1458       C  0.83550246  0.66902604  0.98548564     0.32300
C1459       C  0.80340355  0.65715705  0.56576337    -0.03900
C1460       C  0.85469249  0.71115772  0.56218858    -0.04700
C1461       C  0.84725873  0.65456360  0.56274210    -0.04500
C1462       C  0.80491615  0.64777220  0.01290864    -0.03900
C1463       C  0.85161342  0.70776850  0.00986682    -0.04700
C1464       C  0.85410016  0.65736688  0.00962310    -0.04500
C1465       C  0.77555110  0.63726531  0.99891840    -0.29900
N1466       N  0.76041342  0.63485640  0.04020068     0.16600
C1467       C  0.77475058  0.64569257  0.58288400    -0.29900
H1468       H  0.76907445  0.64635338  0.62113842     0.18500
C1469       C  0.86724561  0.74235876  0.99462444    -0.28900
N1470       N  0.88262271  0.76574766  0.53435447     0.15300
C1471       C  0.87407500  0.74759991  0.57608309    -0.28900
C1472       C  0.87059380  0.64446618  0.99340973    -0.29200
N1473       N  0.88337560  0.64062318  0.03369421     0.15800
H1474       H  0.87334617  0.63856629  0.95538926     0.18400
C1475       C  0.86744179  0.64625074  0.57542309    -0.29200
H1476       H  0.87742491  0.64938543  0.61201111     0.18400
H1477       H  0.88132683  0.76003416  0.61359098     0.18400
H1478       H  0.76679520  0.63457950  0.96143034     0.18500
H1479       H  0.87040005  0.75019877  0.95692163     0.18400
C1480       C  0.84525461  0.67692904  0.83808685     0.32300
C1481       C  0.84097610  0.66663968  0.73553958     0.32300
C1482       C  0.81339503  0.66239958  0.81292813    -0.03900
C1483       C  0.86734239  0.71043567  0.80954711    -0.04700
C1484       C  0.85168908  0.65046520  0.81599010    -0.04500
C1485       C  0.81121147  0.65704256  0.76086317    -0.03900
C1486       C  0.86534827  0.70530714  0.75772273    -0.04700
C1487       C  0.84952712  0.64514882  0.76393692    -0.04500
C1488       C  0.78146038  0.64476558  0.74579651    -0.29900
N1489       N  0.76581738  0.64272630  0.78668836     0.16600
C1490       C  0.78493888  0.65338911  0.82774763    -0.29900
H1491       H  0.77861293  0.65462586  0.86545340     0.18500
C1492       C  0.88481451  0.73888280  0.73983466    -0.28900
N1493       N  0.89811044  0.76370869  0.77918413     0.15300
C1494       C  0.88768500  0.74694179  0.82176974    -0.28900
C1495       C  0.86470594  0.62972456  0.75161957    -0.29200
N1496       N  0.87516617  0.62501056  0.79405910     0.15800
H1497       H  0.86979321  0.62476336  0.71460136     0.18400
C1498       C  0.86798295  0.63813656  0.83331293    -0.29200
H1499       H  0.87621832  0.64115032  0.87113887     0.18400
H1500       H  0.89339419  0.76054343  0.85856709     0.18400
H1501       H  0.77191985  0.63795176  0.70801975     0.18500
H1502       H  0.88808984  0.74508855  0.70134783     0.18400
C1503       C  0.60423258  0.56445617  0.54653710     0.78800
Tb1504     Tb  0.96522160  0.51310203  0.55815436     1.80700
O1505       O  0.59022082  0.55967459  0.58621918    -0.49300
O1506       O  0.56857479  0.99896416  0.62082658    -0.56700
C1507       C  0.54105948  0.59106498  0.55902994     0.94600
O1508       O  0.95978697  0.55884452  0.58550411    -0.56200
Tb1509     Tb  0.53952337  0.51883110  0.55046338     1.78100
O1510       O  0.92225820  0.96841240  0.52990824    -0.56700
O1511       O  0.50611712  0.96690097  0.52741188    -0.75500
O1512       O  0.54845260  0.57362425  0.53263532    -0.74900
O1513       O  0.52402463  0.50877867  0.97708064    -0.60100
C1514       C  0.97634648  0.94525777  0.53694964     0.94200
O1515       O  0.97694095  0.49349669  0.62660167    -0.72100
C1516       C  0.90292112  0.47138999  0.58344640     0.77600
C1517       C  0.56913695  0.97709705  0.59123100     0.78600
O1518       O  0.58629809  0.54838115  0.50840987    -0.57300
O1519       O  0.55993125  0.97573349  0.54760678    -0.49300
O1520       O  0.50060247  0.53641240  0.97932853    -0.75300
O1521       O  0.53147519  0.53220281  0.63030453    -0.59300
C1522       C  0.50681592  0.52147623  0.65280200     0.92400
C1523       C  0.51352524  0.52393137  0.95640388     0.93600
C1524       C  0.95791871  0.56532505  0.03918051     0.78000
O1525       O  0.92524812  0.49012580  0.61514709    -0.48700
O1526       O  0.96142472  0.54990233  0.00254051    -0.49800
O1527       O  0.96757304  0.96188564  0.51540458    -0.62700
O1528       O  0.51654667  0.57523683  0.58355474    -0.63800
C1529       C  0.61423590  0.56998034  0.79289205     0.78800
Tb1530     Tb  0.96855944  0.50367285  0.80210121     1.80700
O1531       O  0.60129187  0.57002588  0.83187023    -0.49300
O1532       O  0.57007385  0.99938688  0.86762050    -0.56700
C1533       C  0.55007099  0.59436102  0.80621613     0.94600
O1534       O  0.95603867  0.54031104  0.84249838    -0.56200
Tb1535     Tb  0.54955977  0.52291636  0.80401919     1.78100
O1536       O  0.92330435  0.96868205  0.77304735    -0.56700
O1537       O  0.50169873  0.96358139  0.81432768    -0.75500
O1538       O  0.55944974  0.57876039  0.82893931    -0.74900
O1539       O  0.53326187  0.52900256  0.72713682    -0.60100
C1540       C  0.98111393  0.94193109  0.78319981     0.94200
O1541       O  0.99584447  0.52170419  0.87803551    -0.72100
C1542       C  0.90383736  0.45499795  0.80169105     0.77600
C1543       C  0.56866461  0.97518657  0.84032341     0.78600
O1544       O  0.59512218  0.54802561  0.75848427    -0.57300
O1545       O  0.55709785  0.97083791  0.79737278    -0.49300
O1546       O  0.48443166  0.51371354  0.72953252    -0.75300
O1547       O  0.52563148  0.51082426  0.87945059    -0.59300
C1548       C  0.51574821  0.52649370  0.90344402     0.91000
C1549       C  0.50822644  0.52136756  0.70648611     0.93600
C1550       C  0.95032241  0.54976366  0.80362427     0.78000
O1551       O  0.92087487  0.46948899  0.84094300    -0.48700
O1552       O  0.95505149  0.53789079  0.76418857    -0.49800
O1553       O  0.96994884  0.95617160  0.80727574    -0.62700
O1554       O  0.52339833  0.57719821  0.78429135    -0.63800
C1555       C  0.68376974  0.86820512  0.54400174     0.32300
C1556       C  0.68429582  0.86216724  0.64519313     0.32300
C1557       C  0.67383118  0.88831933  0.57644200    -0.03900
C1558       C  0.66224031  0.82960411  0.56118662    -0.04700
C1559       C  0.71525272  0.88199555  0.56896592    -0.04500
C1560       C  0.67357153  0.88503524  0.62797508    -0.03900
C1561       C  0.66272157  0.82673860  0.61253449    -0.04700
C1562       C  0.71548019  0.87888259  0.62009521    -0.04500
C1563       C  0.65446833  0.89412457  0.64649002    -0.29900
N1564       N  0.64519635  0.90462528  0.60899109     0.16600
C1565       C  0.65618844  0.90048437  0.56614544    -0.29900
H1566       H  0.64988647  0.90362112  0.52975421     0.18500
C1567       C  0.64402177  0.79054756  0.62031350    -0.28900
N1568       N  0.63225929  0.77151091  0.57566339     0.15300
C1569       C  0.64310166  0.79482147  0.53925601    -0.28900
C1570       C  0.74513364  0.89061168  0.63468395    -0.29200
N1571       N  0.76262521  0.90072244  0.59408472     0.15800
H1572       H  0.75322502  0.89108320  0.67172076     0.18400
C1573       C  0.74476497  0.89562377  0.55381653    -0.29200
H1574       H  0.75252686  0.90075048  0.51626500     0.18400
H1575       H  0.63810723  0.78698764  0.49987718     0.18400
H1576       H  0.64582633  0.89083182  0.68343050     0.18500
H1577       H  0.63990047  0.77882896  0.65560401     0.18400
C1578       C  0.68523314  0.87053450  0.79433843     0.32300
C1579       C  0.68615425  0.86237895  0.89478810     0.32300
C1580       C  0.67481147  0.88933042  0.82849966    -0.03900
C1581       C  0.66431345  0.83158798  0.80993866    -0.04700
C1582       C  0.71699925  0.88446822  0.81860306    -0.04500
C1583       C  0.67479745  0.88503909  0.87959008    -0.03900
C1584       C  0.66500729  0.82763919  0.86082853    -0.04700
C1585       C  0.71744927  0.88025585  0.86945291    -0.04500
C1586       C  0.65695167  0.89527167  0.90032221    -0.29900
N1587       N  0.64753432  0.90658263  0.86400968     0.16600
C1588       C  0.65780805  0.90255100  0.82021774    -0.29900
H1589       H  0.65149765  0.90661890  0.78450436     0.18500
C1590       C  0.64726283  0.79127497  0.86696835    -0.28900
N1591       N  0.63593710  0.77328217  0.82169660     0.15300
C1592       C  0.64598977  0.79729834  0.78652192    -0.28900
C1593       C  0.74695065  0.89077145  0.88271961    -0.29200
N1594       N  0.76414525  0.90122873  0.84171369     0.15800
H1595       H  0.75497559  0.88970018  0.91898172     0.18400
C1596       C  0.74620036  0.89745689  0.80243490    -0.29200
H1597       H  0.75353266  0.90254166  0.76467205     0.18400
H1598       H  0.64110682  0.79022853  0.74703965     0.18400
H1599       H  0.64953322  0.89243009  0.93807148     0.18500
H1600       H  0.64366638  0.77874767  0.90148740     0.18400
C1601       C  0.68716064  0.85545701  0.94972907    -0.14100
C1602       C  0.68373945  0.87355543  0.48825092    -0.29300
H1603       H  0.68779757  0.83295582  0.95707884     0.14900
H1604       H  0.68162052  0.89450892  0.47886017     0.15500
C1605       C  0.68623021  0.85728802  0.70083692    -0.14100
C1606       C  0.68446568  0.87640871  0.73900781    -0.29300
H1607       H  0.69020576  0.83752762  0.70969791     0.14900
H1608       H  0.68294459  0.89800363  0.73070879     0.15500
C1609       C  0.61843995  0.73571215  0.81302885    -0.16200
C1610       C  0.60355205  0.70329442  0.80829841     0.07900
C1611       C  0.58584885  0.66532750  0.80614221     0.09700
C1612       C  0.57004033  0.63290813  0.80590133    -0.17000
C1613       C  0.88031088  0.94765844  0.82467377    -0.16200
C1614       C  0.85316663  0.93486607  0.83072794     0.07900
C1615       C  0.82169296  0.92211756  0.83622369     0.09700
C1616       C  0.79505999  0.91228873  0.83940438    -0.17000
C1617       C  0.62810775  0.91795783  0.86890698    -0.16200
C1618       C  0.61199546  0.92863213  0.86891878     0.07900
C1619       C  0.59445662  0.94265820  0.86362376     0.09700
C1620       C  0.58126514  0.95627993  0.85517982    -0.17000
C1621       C  0.61318279  0.73359044  0.56880152    -0.16200
C1622       C  0.59686752  0.70092225  0.56499158     0.07900
C1623       C  0.57763567  0.66262389  0.56251041     0.09700
C1624       C  0.56103923  0.62998057  0.56100429    -0.17000
C1625       C  0.79399567  0.91345214  0.59338057    -0.16200
C1626       C  0.82102230  0.92471073  0.59149681     0.07900
C1627       C  0.85284573  0.93898088  0.58689366     0.09700
C1628       C  0.88012466  0.95276892  0.58079620    -0.17000
C1629       C  0.62580231  0.91605254  0.61279025    -0.16200
C1630       C  0.61013949  0.92728659  0.61372899     0.07900
C1631       C  0.59350912  0.94255006  0.61094619     0.09700
C1632       C  0.58110131  0.95730593  0.60458746    -0.17000
C1633       C  0.93772263  0.57022467  0.80392055    -0.16200
C1634       C  0.92488909  0.58484588  0.80262893     0.07900
C1635       C  0.90824059  0.60001649  0.79977523     0.09700
C1636       C  0.89318345  0.61186568  0.79693663    -0.17000
C1637       C  0.91679307  0.80112345  0.77649295    -0.16200
C1638       C  0.93218127  0.83339970  0.77575619     0.07900
C1639       C  0.94938262  0.87118655  0.77693619     0.09700
C1640       C  0.96380525  0.90349565  0.77920478    -0.17000
C1641       C  0.64766680  0.59096564  0.78930238    -0.16200
C1642       C  0.67545108  0.60560385  0.78774552     0.07900
C1643       C  0.70759730  0.62014082  0.78685817     0.09700
C1644       C  0.73462365  0.63097885  0.78661880    -0.17000
C1645       C  0.94678735  0.58696897  0.03455312    -0.16200
C1646       C  0.93439801  0.60201233  0.03251106     0.07900
C1647       C  0.91752549  0.61691178  0.03188103     0.09700
C1648       C  0.90197322  0.62818910  0.03244763    -0.17000
C1649       C  0.90238183  0.80343379  0.53305601    -0.16200
C1650       C  0.91939753  0.83586494  0.53218157     0.07900
C1651       C  0.93928700  0.87392516  0.53226105     0.09700
C1652       C  0.95621767  0.90647125  0.53365281    -0.17000
C1653       C  0.72369067  0.62264959  0.54481137    -0.16200
C1654       C  0.69677067  0.61168098  0.54534245     0.07900
C1655       C  0.66496000  0.59775106  0.54524320     0.09700
C1656       C  0.63744310  0.58412372  0.54539490    -0.17000
C1657       C  0.83047076  0.66174607  0.92833276    -0.14100
C1658       C  0.85012297  0.68466354  0.89502459    -0.29300
H1659       H  0.80954848  0.63605292  0.91392584     0.14900
H1660       H  0.87153983  0.70973429  0.90909154     0.15500
C1661       C  0.83752644  0.68097342  0.64627946    -0.14100
C1662       C  0.83935218  0.66057873  0.67843133    -0.29300
H1663       H  0.83489146  0.70134551  0.66172533     0.14900
H1664       H  0.83992115  0.63863156  0.66351703     0.15500
loop_ 
_geom_bond_atom_site_label_1 
_geom_bond_atom_site_label_2 
_geom_bond_distance 
_geom_bond_site_symmetry_2 
_ccdc_geom_bond_type 
C1            C3   1.549       .  S
C1            C5   1.537       .  S
C1            C4   1.541       .  S
C1          C205   1.546       .  S
C2            C6   1.547       .  S
C2            C8   1.534       .  S
C2            C7   1.538       .  S
C2          C201   1.545       .  S
C3           C11   1.390       .  A
C3          C214   1.414       .  A
C4           C15   1.379       .  A
C4          C215   1.401       .  A
C5           C19   1.378       .  A
C5          C216   1.397       .  A
C6            C9   1.383       .  A
C6          C211   1.415       .  A
C7           C13   1.377       .  A
C7          C212   1.403       .  A
C8           C16   1.379       .  A
C8          C213   1.398       .  A
C9           N10   1.351       .  A
C9           H22   1.082       .  S
N10         C219   1.354       .  A
N10         C405   1.409       .  S
C11         N218   1.352       .  A
C11          H12   1.081       .  S
C13         N222   1.356       .  A
C13          H23   1.082       .  S
N14          C15   1.357       .  A
N14         C221   1.355       .  A
N14         C193   1.403       .  S
C15          H21   1.082       .  S
C16          N17   1.357       .  A
C16          H18   1.082       .  S
N17         C227   1.357       .  A
N17         C192   1.406       .  S
C19         N225   1.356       .  A
C19          H20   1.083       .  S
C24          C26   1.551       .  S
C24          C28   1.541       .  S
C24          C27   1.542       .  S
C24         C202   1.553       .  S
C25          C29   1.542       .  S
C25          C31   1.533       .  S
C25          C30   1.537       .  S
C25         C206   1.540       .  S
C26          C34   1.389       .  A
C26          C29   1.413       .  A
C27          C38   1.379       .  A
C27          C30   1.402       .  A
C28          C42   1.378       .  A
C28          C31   1.400       .  A
C29          C32   1.380       .  A
C30          C36   1.376       .  A
C31          C39   1.379       .  A
C32          N33   1.349       .  A
C32          H45   1.082       .  S
N33          C34   1.352       .  A
N33         C188   1.405       .  S
C34          H35   1.081       .  S
C36          N37   1.354       .  A
C36          H46   1.081       .  S
N37          C38   1.357       .  A
N37         C181   1.403       .  S
C38          H44   1.082       .  S
C39          N40   1.357       .  A
C39          H41   1.083       .  S
N40          C42   1.357       .  A
N40         C180   1.405       .  S
C42          H43   1.082       .  S
C47          O62   1.260       .  A
C47          O49   1.263       .  A
C47         C200   1.443       .  S
Tb48         O59   2.323       .  S
Tb48         O52   2.369       .  S
Tb48         O69   2.362   1_545  S
Tb48        O278   2.364       .  S
Tb48        O487   2.361   1_545  S
Tb48        O470   2.354   1_545  S
Tb48       O1104   2.325   1_554  S
Tb48        O904   2.353       .  S
O49         Tb53   2.367       .  S
O50          C61   1.262       .  A
O50        Tb469   2.361       .  S
C51          O56   1.267       .  A
C51          O72   1.267       .  A
C51         C168   1.434       .  S
O52         C276   1.262       .  A
Tb53         O62   2.357       .  S
Tb53         O56   2.345       .  S
Tb53         O65   2.334       .  S
Tb53        O466   2.356   1_545  S
Tb53        O265   2.332   1_554  S
Tb53        O479   2.367   1_545  S
Tb53        O471   2.356   1_545  S
O54         C476   1.261       .  A
O54        Tb464   2.361       .  S
O55         C890   1.269       .  A
O55        Tb469   2.348   1_655  S
O57          C67   1.271       .  A
O57        Tb261   2.324       .  S
C58          O71   1.266       .  A
C58         O887   1.269       .  A
C58         C196   1.435       .  S
O59         C898   1.269       .  A
C60          O69   1.263       .  A
C60         O470   1.262       .  A
C60         C588   1.440       .  S
C61          O63   1.262       .  A
C61         C176   1.443       .  S
O63        Tb469   2.361       .  S
O64          C67   1.271   1_655  A
O64       Tb1088   2.334       .  S
O65          C66   1.272       .  A
C66         O891   1.268   1_455  A
C66          C93   1.448       .  S
C67          C92   1.448       .  S
C68          O70   1.261       .  A
C68         O260   1.262       .  A
C68         C189   1.441       .  S
O70        Tb256   2.359       .  S
O71        Tb464   2.339       .  S
O72        Tb880   2.343   1_455  S
C73          O88   1.262       .  A
C73          O75   1.261       .  A
C73         C185   1.439       .  S
Tb74         O96   2.359       .  S
Tb74         O85   2.334       .  S
Tb74         O78   2.362       .  S
Tb74         O95   2.365   1_545  S
Tb74        O513   2.332   1_545  S
Tb74        O496   2.354   1_545  S
Tb74        O922   2.340       .  S
Tb74        O930   2.338       .  S
O75         Tb79   2.357       .  S
O76          C87   1.261       .  A
O76        Tb495   2.366       .  S
C77          O82   1.269       .  A
C77          O98   1.268       .  A
C77         C156   1.435       .  S
O78          C94   1.259       .  A
Tb79         O83   2.325       .  S
Tb79         O88   2.358       .  S
Tb79         O82   2.350       .  S
Tb79         O91   2.323       .  S
Tb79        O492   2.366   1_545  S
Tb79        O505   2.358   1_545  S
Tb79        O497   2.348   1_545  S
O80         C502   1.263       .  A
O80        Tb490   2.357       .  S
O81         C916   1.268       .  A
O81        Tb495   2.345   1_655  S
O83          C93   1.269       .  A
C84          O97   1.270       .  A
C84         O913   1.269       .  A
C84         C184   1.438       .  S
O85         C924   1.270       .  A
C86          O95   1.261       .  A
C86         O496   1.258       .  A
C86         C573   1.439       .  S
C87          O89   1.260       .  A
C87         C164   1.443       .  S
O89        Tb495   2.362       .  S
O90          C93   1.272   1_665  A
O90        Tb906   2.331   1_565  S
O91          C92   1.270       .  A
C92         O917   1.272       .  A
C94          O96   1.259       .  A
C94         C177   1.439       .  S
O97        Tb490   2.356       .  S
O98        Tb906   2.346   1_455  S
C99         C101   1.535       .  S
C99         C103   1.534       .  S
C99         C102   1.545       .  S
C99         C146   1.544   1_554  S
C100        C104   1.560       .  S
C100        C106   1.542       .  S
C100        C105   1.539       .  S
C100        C149   1.553       .  S
C101        C109   1.375       .  A
C101        C104   1.406       .  A
C102        C113   1.382       .  A
C102        C105   1.404       .  A
C103        C117   1.376       .  A
C103        C106   1.400       .  A
C104        C107   1.393       .  A
C105        C111   1.375       .  A
C106        C114   1.381       .  A
C107        N108   1.358       .  A
C107        H120   1.079       .  S
N108        C109   1.350       .  A
N108        C173   1.407       .  S
C109        H110   1.082       .  S
C111        N112   1.354       .  A
C111        H121   1.082       .  S
N112        C113   1.357       .  A
N112        C165   1.402       .  S
C113        H119   1.082   1_554  S
C114        N115   1.358       .  A
C114        H116   1.082       .  S
N115        C117   1.356       .  A
N115        C169   1.406       .  S
C117        H118   1.081       .  S
C122        C124   1.541       .  S
C122        C126   1.533       .  S
C122        C125   1.541       .  S
C122        C150   1.544       .  S
C123        C127   1.555       .  S
C123        C129   1.542       .  S
C123        C128   1.536       .  S
C123        C145   1.550       .  S
C124        C132   1.378       .  A
C124        C127   1.405       .  A
C125        C136   1.381       .  A
C125        C128   1.403       .  A
C126        C140   1.376       .  A
C126        C129   1.403       .  A
C127        C130   1.392       .  A
C128        C134   1.372       .  A
C129        C137   1.380       .  A
C130        N131   1.357       .  A
C130        H143   1.080       .  S
N131        C132   1.350       .  A
N131        C161   1.407       .  S
C132        H133   1.082       .  S
C134        N135   1.353       .  A
C134        H144   1.082       .  S
N135        C136   1.358       .  A
N135        C153   1.402       .  S
C136        H142   1.082       .  S
C137        N138   1.357       .  A
C137        H139   1.083       .  S
N138        C140   1.355       .  A
N138        C160   1.404       .  S
C140        H141   1.082       .  S
C145        H147   1.086       .  S
C145        C354   1.353       .  D
C146        H148   1.084       .  S
C146        C353   1.352       .  D
C149        H151   1.086       .  S
C149        C150   1.354       .  D
C150        H152   1.074       .  S
C153        C154   1.206       .  T
C154        C155   1.412       .  S
C155        C156   1.206       .  T
C157        C502   1.438       .  S
C157        C158   1.207       .  T
C158        C159   1.415       .  S
C159        C160   1.208       .  T
C161        C162   1.211       .  T
C162        C163   1.420       .  S
C163        C164   1.210       .  T
C165        C166   1.206       .  T
C166        C167   1.412       .  S
C167        C168   1.205       .  T
C169        C170   1.210       .  T
C170        C171   1.419       .  S
C171        C172   1.210       .  T
C172        C476   1.442       .  S
C173        C174   1.210       .  T
C174        C175   1.419       .  S
C175        C176   1.210       .  T
C177        C178   1.208       .  T
C178        C179   1.416       .  S
C179        C180   1.209       .  T
C181        C182   1.207       .  T
C182        C183   1.414       .  S
C183        C184   1.207       .  T
C185        C186   1.208       .  T
C186        C187   1.416       .  S
C187        C188   1.208       .  T
C189        C190   1.209       .  T
C190        C191   1.418       .  S
C191        C192   1.210       .  T
C193        C194   1.206       .  T
C194        C195   1.413       .  S
C195        C196   1.206       .  T
C197        N218   1.408       .  S
C197        C198   1.211       .  T
C198        C199   1.420       .  S
C199        C200   1.211       .  T
C201        H203   1.079       .  S
C201        C202   1.361       .  D
C202        H204   1.086       .  S
C205        H207   1.085       .  S
C205        C206   1.358       .  D
C206        H208   1.081       .  S
C209        C211   1.552       .  S
C209        C213   1.539       .  S
C209        C212   1.540       .  S
C209        C413   1.550       .  S
C210        C214   1.545   1_556  S
C210        C216   1.538   1_556  S
C210        C215   1.538   1_556  S
C210        C409   1.539       .  S
C211        C219   1.391       .  A
C212        C223   1.377       .  A
C213        C227   1.378       .  A
C214        C217   1.383       .  A
C215        C221   1.377       .  A
C216        C224   1.383   1_554  A
C217        N218   1.350       .  A
C217        H230   1.082   1_554  S
C219        H220   1.081       .  S
C221        H231   1.082   1_554  S
N222        C223   1.356       .  A
N222        C401   1.403       .  S
C223        H229   1.082       .  S
C224        N225   1.360   1_556  A
C224        H226   1.082       .  S
N225        C400   1.409       .  S
C227        H228   1.083       .  S
C232        C234   1.547       .  S
C232        C236   1.535       .  S
C232        C235   1.541       .  S
C232        C410   1.544       .  S
C233        C237   1.543       .  S
C233        C239   1.537       .  S
C233        C238   1.542       .  S
C233        C414   1.543       .  S
C234        C242   1.388       .  A
C234        C237   1.409       .  A
C235        C246   1.378       .  A
C235        C238   1.403       .  A
C236        C250   1.375       .  A
C236        C239   1.399       .  A
C237        C240   1.379       .  A
C238        C244   1.380       .  A
C239        C247   1.380       .  A
C240        N241   1.350       .  A
C240        H253   1.082       .  S
N241        C242   1.354       .  A
N241        C396   1.405       .  S
C242        H243   1.082       .  S
C244        N245   1.357       .  A
C244        H254   1.082       .  S
N245        C246   1.357       .  A
N245        C389   1.406       .  S
C246        H252   1.082       .  S
C247        N248   1.359       .  A
C247        H249   1.082       .  S
N248        C250   1.355       .  A
N248        C388   1.405       .  S
C250        H251   1.082       .  S
C255        O270   1.261       .  A
C255        O257   1.263       .  A
C255        C408   1.445       .  S
Tb256       O695   2.358   1_545  S
Tb256       O678   2.358   1_545  S
Tb256       O896   2.332       .  S
Tb256       O267   2.344       .  S
Tb256       O260   2.362       .  S
Tb256      O1112   2.350       .  S
Tb256       O277   2.360   1_545  S
O257       Tb261   2.366       .  S
O258        C269   1.263       .  A
O258       Tb677   2.366       .  S
C259        O264   1.272       .  A
C259        O280   1.269       .  A
C259        C376   1.445       .  S
Tb261       O674   2.366   1_545  S
Tb261       O270   2.359       .  S
Tb261       O264   2.366       .  S
Tb261       O687   2.374   1_545  S
Tb261       O273   2.321       .  S
Tb261       O679   2.357   1_545  S
O262        C684   1.259       .  A
O262       Tb672   2.365       .  S
O263       C1098   1.274       .  A
O263       Tb677   2.362   1_655  S
O265        C275   1.272       .  A
C266       O1095   1.268       .  A
C266        O279   1.268       .  A
C266        C404   1.437       .  S
O267       C1106   1.271       .  A
C268        O678   1.261       .  A
C268        O277   1.262       .  A
C268        C796   1.441       .  S
C269        O271   1.261       .  A
C269        C384   1.441       .  S
O271       Tb677   2.351       .  S
O272        C275   1.270       .  A
O272       Tb880   2.322   1_456  S
O273        C274   1.270       .  A
C274       O1099   1.272   1_455  A
C274        C301   1.449       .  S
C275        C300   1.447       .  S
C276        O278   1.261       .  A
C276        C397   1.447       .  S
O279       Tb672   2.350       .  S
O280      Tb1088   2.347   1_455  S
C281        O296   1.262       .  A
C281        O283   1.260       .  A
C281        C393   1.439       .  S
Tb282       O304   2.362       .  S
Tb282       O721   2.338   1_545  S
Tb282       O704   2.360   1_545  S
Tb282      O1130   2.341       .  S
Tb282       O293   2.343       .  S
Tb282       O286   2.358       .  S
Tb282      O1138   2.345       .  S
Tb282       O303   2.369   1_545  S
O283       Tb287   2.354       .  S
O284        C295   1.261       .  A
O284       Tb703   2.369       .  S
C285        O290   1.268       .  A
C285        O306   1.268       .  A
C285        C364   1.437       .  S
O286        C302   1.259       .  A
Tb287       O700   2.366   1_545  S
Tb287       O291   2.339       .  S
Tb287       O296   2.360       .  S
Tb287       O290   2.348       .  S
Tb287       O713   2.360   1_545  S
Tb287       O299   2.327   1_545  S
Tb287       O705   2.336   1_545  S
O288        C710   1.263       .  A
O288       Tb698   2.354       .  S
O289       C1124   1.268       .  A
O289       Tb703   2.346   1_655  S
O291        C301   1.275       .  A
C292       O1121   1.270       .  A
C292        O305   1.270       .  A
C292        C392   1.441       .  S
O293       C1132   1.272       .  A
C294        O704   1.260       .  A
C294        O303   1.262       .  A
C294        C781   1.445       .  S
C295        O297   1.260       .  A
C295        C372   1.447       .  S
O297       Tb703   2.366       .  S
O298        C301   1.272   1_665  A
O298      Tb1114   2.326   1_565  S
O299        C300   1.268   1_565  A
C300       O1125   1.270       .  A
C302        O304   1.260       .  A
C302        C385   1.439       .  S
O305       Tb698   2.355       .  S
O306      Tb1114   2.352   1_455  S
C307        C309   1.541       .  S
C307        C311   1.540       .  S
C307        C310   1.545       .  S
C307        C354   1.541       .  S
C308        C312   1.537       .  S
C308        C314   1.557       .  S
C308        C313   1.537       .  S
C308        C357   1.544       .  S
C309        C317   1.380       .  A
C309        C312   1.397       .  A
C310        C321   1.385       .  A
C310        C313   1.401       .  A
C311        C325   1.378       .  A
C311        C314   1.407       .  A
C312        C315   1.382       .  A
C313        C319   1.375       .  A
C314        C322   1.388       .  A
C315        N316   1.356       .  A
C315        H328   1.080       .  S
N316        C317   1.355       .  A
N316        C381   1.406       .  S
C317        H318   1.082       .  S
C319        N320   1.354       .  A
C319        H329   1.083       .  S
N320        C321   1.361       .  A
N320        C373   1.408       .  S
C321        H327   1.082       .  S
C322        N323   1.359       .  A
C322        H324   1.081       .  S
N323        C325   1.356       .  A
N323        C377   1.411       .  S
C325        H326   1.082       .  S
C330        C332   1.539       .  S
C330        C334   1.538       .  S
C330        C333   1.542       .  S
C330        C358   1.540       .  S
C331        C335   1.550       .  S
C331        C337   1.537       .  S
C331        C336   1.537       .  S
C331        C353   1.542       .  S
C332        C340   1.376       .  A
C332        C335   1.405       .  A
C333        C344   1.383       .  A
C333        C336   1.401       .  A
C334        C348   1.378       .  A
C334        C337   1.400       .  A
C335        C338   1.385       .  A
C336        C342   1.374       .  A
C337        C345   1.382       .  A
C338        N339   1.360       .  A
C338        H351   1.082       .  S
N339        C340   1.356       .  A
N339        C369   1.410       .  S
C340        H341   1.079       .  S
C342        N343   1.353       .  A
C342        H352   1.083       .  S
N343        C344   1.359       .  A
N343        C361   1.404       .  S
C344        H350   1.082       .  S
C345        N346   1.356       .  A
C345        H347   1.081       .  S
N346        C348   1.352       .  A
N346        C368   1.404       .  S
C348        H349   1.083       .  S
C353        H355   1.083       .  S
C354        H356   1.076       .  S
C357        H359   1.086       .  S
C357        C358   1.350       .  D
C358        H360   1.080       .  S
C361        C362   1.207       .  T
C362        C363   1.415       .  S
C363        C364   1.207       .  T
C365        C710   1.437       .  S
C365        C366   1.207       .  T
C366        C367   1.415       .  S
C367        C368   1.207       .  T
C369        C370   1.213       .  T
C370        C371   1.423       .  S
C371        C372   1.213       .  T
C373        C374   1.211       .  T
C374        C375   1.421       .  S
C375        C376   1.211       .  T
C377        C378   1.213       .  T
C378        C379   1.424       .  S
C379        C380   1.213       .  T
C380        C684   1.447       .  S
C381        C382   1.210       .  T
C382        C383   1.418       .  S
C383        C384   1.209       .  T
C385        C386   1.208       .  T
C386        C387   1.416       .  S
C387        C388   1.208       .  T
C389        C390   1.209       .  T
C390        C391   1.418       .  S
C391        C392   1.209       .  T
C393        C394   1.208       .  T
C394        C395   1.416       .  S
C395        C396   1.208       .  T
C397        C398   1.213       .  T
C398        C399   1.423       .  S
C399        C400   1.212       .  T
C401        C402   1.207       .  T
C402        C403   1.414       .  S
C403        C404   1.207       .  T
C405        C406   1.212       .  T
C406        C407   1.422       .  S
C407        C408   1.212       .  T
C409        H411   1.082       .  S
C409        C410   1.356       .  D
C410        H412   1.086       .  S
C413        H415   1.086       .  S
C413        C414   1.357       .  D
C414        H416   1.080       .  S
C417        C419   1.545       .  S
C417        C421   1.531       .  S
C417        C420   1.538       .  S
C417        C621   1.541       .  S
C418        C422   1.536       .  S
C418        C424   1.539       .  S
C418        C423   1.557       .  S
C418        C617   1.553       .  S
C419        C427   1.383       .  A
C419        C630   1.407       .  A
C420        C431   1.377       .  A
C420        C631   1.407       .  A
C421        C435   1.376       .  A
C421        C632   1.396       .  A
C422        C627   1.398       .  A
C422        C425   1.378       .  A
C423        C628   1.408       .  A
C423        C429   1.388       .  A
C424        C629   1.410       .  A
C424        C432   1.378       .  A
C425        N426   1.355       .  A
C425        H438   1.081       .  S
N426        C635   1.356       .  A
N426        C821   1.404       .  S
C427        N634   1.353       .  A
C427        H428   1.081       .  S
C429        N638   1.355       .  A
C429        H439   1.078       .  S
N430        C637   1.356   1_554  A
N430        C431   1.353       .  A
N430        C609   1.405       .  S
C431        H437   1.081       .  S
C432        N433   1.352       .  A
C432        H434   1.082       .  S
N433        C643   1.353       .  A
N433        C608   1.404       .  S
C435        N641   1.355       .  A
C435        H436   1.082       .  S
C440        C442   1.537       .  S
C440        C444   1.545       .  S
C440        C443   1.540       .  S
C440        C618   1.542       .  S
C441        C445   1.537       .  S
C441        C447   1.537       .  S
C441        C446   1.533       .  S
C441        C622   1.535       .  S
C442        C450   1.378       .  A
C442        C445   1.402       .  A
C443        C454   1.376       .  A
C443        C446   1.398       .  A
C444        C458   1.379       .  A
C444        C447   1.406       .  A
C445        C448   1.376       .  A
C446        C452   1.377       .  A
C447        C455   1.376       .  A
C448        N449   1.353       .  A
C448        H461   1.082       .  S
N449        C450   1.356       .  A
N449        C604   1.401       .  S
C450        H451   1.081       .  S
C452        N453   1.353       .  A
C452        H462   1.081       .  S
N453        C454   1.352       .  A
N453        C597   1.397       .  S
C454        H460   1.082       .  S
C455        N456   1.356       .  A
C455        H457   1.082       .  S
N456        C458   1.359       .  A
N456        C596   1.406       .  S
C458        H459   1.082       .  S
C463        O478   1.260       .  A
C463        O465   1.263       .  A
C463        C616   1.439       .  S
Tb464       O694   2.351       .  S
Tb464      O1520   2.324   1_554  S
Tb464       O475   2.322       .  S
Tb464       O468   2.346       .  S
Tb464      O1320   2.353       .  S
Tb464       O485   2.361       .  S
O465       Tb469   2.363       .  S
O466        C477   1.259       .  A
C467        O472   1.266       .  A
C467        O488   1.269       .  A
C467        C584   1.439       .  S
O468        C692   1.259       .  A
Tb469       O681   2.329   1_554  S
Tb469       O478   2.352       .  S
Tb469       O472   2.347       .  S
Tb469       O481   2.342       .  S
O471       C1306   1.272   1_455  A
O473        C483   1.271   1_455  A
O473       Tb677   2.318       .  S
C474       O1303   1.271       .  A
C474        O487   1.272       .  A
C474        C612   1.440       .  S
O475       C1314   1.267       .  A
C476        O485   1.261       .  A
C477        O479   1.261       .  A
C477        C592   1.441       .  S
O480        C483   1.273       .  A
O480      Tb1504   2.344       .  S
O481        C482   1.274       .  A
C482       O1307   1.267   1_455  A
C482        C509   1.452       .  S
C483        C508   1.452       .  S
C484        O676   1.259       .  A
C484        O486   1.260       .  A
C484        C605   1.439       .  S
O486       Tb672   2.361       .  S
O488      Tb1296   2.354   1_455  S
C489        O504   1.260       .  A
C489        O491   1.259       .  A
C489        C601   1.433       .  S
Tb490       O512   2.361       .  S
Tb490      O1338   2.326       .  S
Tb490       O501   2.323       .  S
Tb490       O494   2.357       .  S
Tb490      O1346   2.355       .  S
Tb490       O511   2.353       .  S
O491       Tb495   2.349       .  S
O492        C503   1.263       .  A
C493        O498   1.271       .  A
C493        O514   1.270       .  A
C493        C572   1.443       .  S
O494        C510   1.261       .  A
Tb495       O499   2.323       .  S
Tb495       O504   2.357       .  S
Tb495       O498   2.356       .  S
Tb495       O507   2.327       .  S
O497       C1332   1.270   1_455  A
O499        C509   1.268       .  A
C500       O1329   1.269       .  A
C500        O513   1.265       .  A
C500        C600   1.428       .  S
O501       C1340   1.268       .  A
C502        O511   1.262       .  A
C503        O505   1.260       .  A
C503        C580   1.443       .  S
O506        C509   1.275   1_655  A
O506      Tb1322   2.343       .  S
O507        C508   1.269   1_455  A
C508       O1333   1.270       .  A
C510        O512   1.262       .  A
C510        C593   1.441       .  S
O514      Tb1322   2.354   1_455  S
C515        C517   1.539       .  S
C515        C519   1.543       .  S
C515        C518   1.542       .  S
C515        C562   1.542   1_554  S
C516        C520   1.545       .  S
C516        C522   1.535       .  S
C516        C521   1.539       .  S
C516        C565   1.538       .  S
C517        C525   1.381       .  A
C517        C520   1.402       .  A
C518        C529   1.378       .  A
C518        C521   1.405       .  A
C519        C533   1.379       .  A
C519        C522   1.399       .  A
C520        C523   1.381       .  A
C521        C527   1.377       .  A
C522        C530   1.380       .  A
C523        N524   1.356       .  A
C523        H536   1.083       .  S
N524        C525   1.355       .  A
N524        C589   1.407       .  S
C525        H526   1.080   1_554  S
C527        N528   1.356       .  A
C527        H537   1.082       .  S
N528        C529   1.358       .  A
N528        C581   1.405       .  S
C529        H535   1.082   1_554  S
C530        N531   1.357       .  A
C530        H532   1.081       .  S
N531        C533   1.355       .  A
N531        C585   1.405       .  S
C533        H534   1.082       .  S
C538        C540   1.551       .  S
C538        C542   1.541       .  S
C538        C541   1.542       .  S
C538        C566   1.547       .  S
C539        C543   1.540       .  S
C539        C545   1.533       .  S
C539        C544   1.543       .  S
C539        C561   1.537       .  S
C540        C548   1.391       .  A
C540        C543   1.407       .  A
C541        C552   1.378       .  A
C541        C544   1.404       .  A
C542        C556   1.378       .  A
C542        C545   1.398       .  A
C543        C546   1.380       .  A
C544        C550   1.380       .  A
C545        C553   1.379       .  A
C546        N547   1.349       .  A
C546        H559   1.082       .  S
N547        C548   1.355       .  A
N547        C577   1.407       .  S
C548        H549   1.081       .  S
C550        N551   1.358       .  A
C550        H560   1.082       .  S
N551        C552   1.357       .  A
N551        C569   1.407       .  S
C552        H558   1.082       .  S
C553        N554   1.357       .  A
C553        H555   1.082       .  S
N554        C556   1.356       .  A
N554        C576   1.405       .  S
C556        H557   1.082       .  S
C561        H563   1.080       .  S
C561        C770   1.352       .  D
C562        H564   1.071       .  S
C562        C769   1.356       .  D
C565        H567   1.078       .  S
C565        C566   1.358       .  D
C566        H568   1.086       .  S
C569        C570   1.210       .  T
C570        C571   1.420       .  S
C571        C572   1.210       .  T
C573        C574   1.208       .  T
C574        C575   1.416       .  S
C575        C576   1.209       .  T
C577        C578   1.210       .  T
C578        C579   1.419       .  S
C579        C580   1.210       .  T
C581        C582   1.208       .  T
C582        C583   1.416       .  S
C583        C584   1.208       .  T
C585        C586   1.209       .  T
C586        C587   1.417       .  S
C587        C588   1.209       .  T
C589        C590   1.210       .  T
C590        C591   1.418       .  S
C591        C592   1.209       .  T
C593        C594   1.209       .  T
C594        C595   1.418       .  S
C595        C596   1.209       .  T
C597        C598   1.202       .  T
C598        C599   1.406       .  S
C599        C600   1.202       .  T
C601        C602   1.205       .  T
C602        C603   1.411       .  S
C603        C604   1.205       .  T
C605        C606   1.208       .  T
C606        C607   1.415       .  S
C607        C608   1.208       .  T
C609        C610   1.209       .  T
C610        C611   1.417       .  S
C611        C612   1.209       .  T
C613        N634   1.404       .  S
C613        C614   1.208       .  T
C614        C615   1.416       .  S
C615        C616   1.208       .  T
C617        H619   1.086       .  S
C617        C618   1.354       .  D
C618        H620   1.070       .  S
C621        H623   1.086       .  S
C621        C622   1.354       .  D
C622        H624   1.079       .  S
C625        C627   1.535       .  S
C625        C629   1.549       .  S
C625        C628   1.538       .  S
C625        C829   1.549       .  S
C626        C630   1.539   1_556  S
C626        C632   1.534   1_556  S
C626        C631   1.555   1_556  S
C626        C825   1.545       .  S
C627        C635   1.378       .  A
C628        C639   1.376       .  A
C629        C643   1.386       .  A
C630        C633   1.379   1_554  A
C631        C637   1.387   1_554  A
C632        C640   1.376   1_554  A
C633        N634   1.354   1_556  A
C633        H646   1.082       .  S
C635        H636   1.083       .  S
C637        H647   1.079       .  S
N638        C639   1.352       .  A
N638        C817   1.405       .  S
C639        H645   1.081       .  S
C640        N641   1.354   1_556  A
C640        H642   1.081       .  S
N641        C816   1.399       .  S
C643        H644   1.081       .  S
C648        C650   1.536       .  S
C648        C652   1.538       .  S
C648        C651   1.537       .  S
C648        C826   1.538       .  S
C649        C653   1.538       .  S
C649        C655   1.545       .  S
C649        C654   1.538       .  S
C649        C830   1.542       .  S
C650        C658   1.376       .  A
C650        C653   1.404       .  A
C651        C662   1.375       .  A
C651        C654   1.401       .  A
C652        C666   1.378       .  A
C652        C655   1.401       .  A
C653        C656   1.376       .  A
C654        C660   1.377       .  A
C655        C663   1.381       .  A
C656        N657   1.356       .  A
C656        H669   1.082       .  S
N657        C658   1.356       .  A
N657        C812   1.402       .  S
C658        H659   1.082       .  S
C660        N661   1.354       .  A
C660        H670   1.080       .  S
N661        C662   1.352       .  A
N661        C805   1.398       .  S
C662        H668   1.082       .  S
C663        N664   1.357       .  A
C663        H665   1.082       .  S
N664        C666   1.356       .  A
N664        C804   1.407       .  S
C666        H667   1.081       .  S
C671        O686   1.262       .  A
C671        O673   1.260       .  A
C671        C824   1.437       .  S
Tb672      O1312   2.339       .  S
Tb672       O683   2.339       .  S
Tb672       O676   2.359       .  S
Tb672      O1528   2.355       .  S
Tb672       O693   2.371       .  S
O673       Tb677   2.354       .  S
O674        C685   1.261       .  A
C675        O680   1.268       .  A
C675        O696   1.267       .  A
C675        C792   1.434       .  S
Tb677       O686   2.359       .  S
Tb677       O680   2.351       .  S
Tb677       O689   2.309       .  S
O679       C1514   1.271   1_455  A
O681        C691   1.271       .  A
C682       O1511   1.269       .  A
C682        O695   1.271       .  A
C682        C820   1.438       .  S
O683       C1522   1.273       .  A
C684        O693   1.261       .  A
C685        O687   1.263       .  A
C685        C800   1.450       .  S
O688        C691   1.271   1_655  A
O688      Tb1296   2.325   1_556  S
O689        C690   1.263       .  A
C690       O1515   1.269   1_455  A
C690        C717   1.448       .  S
C691        C716   1.446       .  S
C692        O694   1.260       .  A
C692        C813   1.430       .  S
O696      Tb1504   2.340   1_455  S
C697        O712   1.261       .  A
C697        O699   1.258       .  A
C697        C809   1.435       .  S
Tb698       O720   2.358       .  S
Tb698      O1546   2.323       .  S
Tb698       O709   2.320       .  S
Tb698       O702   2.369       .  S
Tb698      O1554   2.344       .  S
Tb698       O719   2.352       .  S
O699       Tb703   2.350       .  S
O700        C711   1.262       .  A
C701        O706   1.273       .  A
C701        O722   1.271       .  A
C701        C780   1.443       .  S
O702        C718   1.262       .  A
Tb703       O707   2.339       .  S
Tb703       O712   2.361       .  S
Tb703       O706   2.362       .  S
Tb703       O715   2.330       .  S
O705       C1540   1.267   1_455  A
O707        C717   1.272       .  A
C708       O1537   1.269       .  A
C708        O721   1.267       .  A
C708        C808   1.428       .  S
O709       C1548   1.267       .  A
C710        O719   1.262       .  A
C711        O713   1.260       .  A
C711        C788   1.444       .  S
O714        C717   1.267   1_655  A
O714      Tb1530   2.319       .  S
O715        C716   1.270       .  A
C716       O1541   1.269   1_455  A
C718        O720   1.260       .  A
C718        C801   1.443       .  S
O722      Tb1530   2.353   1_455  S
C723        C725   1.552       .  S
C723        C727   1.536       .  S
C723        C726   1.535       .  S
C723        C770   1.544       .  S
C724        C728   1.548       .  S
C724        C730   1.539       .  S
C724        C729   1.539       .  S
C724        C773   1.543       .  S
C725        C733   1.389       .  A
C725        C728   1.409       .  A
C726        C737   1.376       .  A
C726        C729   1.400       .  A
C727        C741   1.377       .  A
C727        C730   1.399       .  A
C728        C731   1.384       .  A
C729        C735   1.377       .  A
C730        C738   1.382       .  A
C731        N732   1.355       .  A
C731        H744   1.082       .  S
N732        C733   1.356       .  A
N732        C797   1.412       .  S
C733        H734   1.081       .  S
C735        N736   1.356       .  A
C735        H745   1.082       .  S
N736        C737   1.355       .  A
N736        C789   1.401       .  S
C737        H743   1.082       .  S
C738        N739   1.359       .  A
C738        H740   1.082       .  S
N739        C741   1.355       .  A
N739        C793   1.406       .  S
C741        H742   1.082       .  S
C746        C748   1.550       .  S
C746        C750   1.539       .  S
C746        C749   1.540       .  S
C746        C774   1.550       .  S
C747        C751   1.544       .  S
C747        C753   1.557       .  S
C747        C752   1.537       .  S
C747        C769   1.552       .  S
C748        C756   1.387       .  A
C748        C751   1.408       .  A
C749        C760   1.381       .  A
C749        C752   1.399       .  A
C750        C764   1.379       .  A
C750        C753   1.406       .  A
C751        C754   1.380       .  A
C752        C758   1.378       .  A
C753        C761   1.391       .  A
C754        N755   1.353       .  A
C754        H767   1.081       .  S
N755        C756   1.355       .  A
N755        C785   1.408       .  S
C756        H757   1.080       .  S
C758        N759   1.355       .  A
C758        H768   1.082       .  S
N759        C760   1.359       .  A
N759        C777   1.407       .  S
C760        H766   1.082       .  S
C761        N762   1.356       .  A
C761        H763   1.078       .  S
N762        C764   1.353       .  A
N762        C784   1.409       .  S
C764        H765   1.082       .  S
C769        H771   1.086       .  S
C770        H772   1.086       .  S
C773        H775   1.078       .  S
C773        C774   1.359       .  D
C774        H776   1.086       .  S
C777        C778   1.210       .  T
C778        C779   1.419       .  S
C779        C780   1.210       .  T
C781        C782   1.212       .  T
C782        C783   1.422       .  S
C783        C784   1.212       .  T
C785        C786   1.211       .  T
C786        C787   1.420       .  S
C787        C788   1.211       .  T
C789        C790   1.205       .  T
C790        C791   1.411       .  S
C791        C792   1.205       .  T
C793        C794   1.210       .  T
C794        C795   1.418       .  S
C795        C796   1.209       .  T
C797        C798   1.215       .  T
C798        C799   1.427       .  S
C799        C800   1.215       .  T
C801        C802   1.211       .  T
C802        C803   1.420       .  S
C803        C804   1.211       .  T
C805        C806   1.202       .  T
C806        C807   1.406       .  S
C807        C808   1.202       .  T
C809        C810   1.206       .  T
C810        C811   1.412       .  S
C811        C812   1.206       .  T
C813        C814   1.203       .  T
C814        C815   1.408       .  S
C815        C816   1.203       .  T
C817        C818   1.208       .  T
C818        C819   1.415       .  S
C819        C820   1.208       .  T
C821        C822   1.207       .  T
C822        C823   1.414       .  S
C823        C824   1.207       .  T
C825        H827   1.086       .  S
C825        C826   1.352       .  D
C826        H828   1.075       .  S
C829        H831   1.085       .  S
C829        C830   1.359       .  D
C830        H832   1.079       .  S
C833        C835   1.553       .  S
C833        C837   1.530       .  S
C833        C836   1.533       .  S
C833       C1037   1.545       .  S
C834        C838   1.543       .  S
C834        C840   1.535       .  S
C834        C839   1.539       .  S
C834       C1033   1.540       .  S
C835        C843   1.385       .  A
C835       C1046   1.423   1_554  A
C836        C847   1.375       .  A
C836       C1047   1.397   1_554  A
C837        C851   1.377       .  A
C837       C1048   1.395   1_554  A
C838       C1043   1.410       .  A
C838        C841   1.381       .  A
C839       C1044   1.400       .  A
C839        C845   1.381       .  A
C840       C1045   1.403       .  A
C840        C848   1.375       .  A
C841        N842   1.351       .  A
C841        H854   1.082       .  S
N842       C1051   1.352       .  A
N842       C1237   1.402       .  S
C843       N1050   1.350       .  A
C843        H844   1.080       .  S
C845       N1054   1.358       .  A
C845        H855   1.082       .  S
N846       C1053   1.356   1_554  A
N846        C847   1.354       .  A
N846       C1025   1.401       .  S
C847        H853   1.082       .  S
C848        N849   1.356       .  A
C848        H850   1.083       .  S
N849       C1059   1.359       .  A
N849       C1024   1.404       .  S
C851       N1057   1.355       .  A
C851        H852   1.082       .  S
C856        C858   1.551       .  S
C856        C860   1.542       .  S
C856        C859   1.538       .  S
C856       C1034   1.547       .  S
C857        C861   1.540       .  S
C857        C863   1.533       .  S
C857        C862   1.541       .  S
C857       C1038   1.538       .  S
C858        C866   1.388       .  A
C858        C861   1.409       .  A
C859        C870   1.375       .  A
C859        C862   1.401       .  A
C860        C874   1.381       .  A
C860        C863   1.399       .  A
C861        C864   1.380       .  A
C862        C868   1.380       .  A
C863        C871   1.377       .  A
C864        N865   1.350       .  A
C864        H877   1.082       .  S
N865        C866   1.354       .  A
N865       C1020   1.405       .  S
C866        H867   1.081       .  S
C868        N869   1.357       .  A
C868        H878   1.081       .  S
N869        C870   1.355       .  A
N869       C1013   1.403       .  S
C870        H876   1.082       .  S
C871        N872   1.356       .  A
C871        H873   1.082       .  S
N872        C874   1.359       .  A
N872       C1012   1.407       .  S
C874        H875   1.083       .  S
C879        O894   1.260       .  A
C879        O881   1.260       .  A
C879       C1032   1.446       .  S
Tb880      O1110   2.360   1_554  S
Tb880      O1319   2.346   1_545  S
Tb880      O1302   2.362   1_545  S
Tb880       O891   2.320       .  S
Tb880       O884   2.355       .  S
Tb880       O901   2.359   1_545  S
O881       Tb885   2.367       .  S
O882        C893   1.262       .  A
O882      Tb1301   2.355       .  S
C883        O888   1.270       .  A
C883        O904   1.270       .  A
C883       C1000   1.438       .  S
O884       C1108   1.259       .  A
Tb885      O1298   2.365       .  S
Tb885      O1097   2.341   1_554  S
Tb885       O894   2.367       .  S
Tb885       O888   2.348       .  S
Tb885      O1311   2.360   1_545  S
Tb885       O897   2.332       .  S
Tb885      O1303   2.348   1_545  S
O886       C1308   1.259       .  A
O886      Tb1296   2.359       .  S
O887      Tb1301   2.354       .  S
O889        C899   1.271       .  A
O889      Tb1093   2.330       .  S
C890        O903   1.269       .  A
C890       C1028   1.433       .  S
C892       O1302   1.260       .  A
C892        O901   1.259       .  A
C892       C1420   1.439       .  S
C893        O895   1.262       .  A
C893       C1008   1.437       .  S
O895      Tb1301   2.354       .  S
O896        C899   1.272       .  A
O897        C898   1.269       .  A
C898        C925   1.449       .  S
C899        C924   1.451       .  S
C900       O1092   1.259       .  A
C900        O902   1.260       .  A
C900       C1021   1.438       .  S
O902      Tb1088   2.364       .  S
O903      Tb1296   2.346       .  S
C905        O920   1.262       .  A
C905        O907   1.261       .  A
C905       C1017   1.441       .  S
Tb906       O928   2.368       .  S
Tb906      O1345   2.345   1_545  S
Tb906      O1328   2.361   1_545  S
Tb906       O917   2.332   1_655  S
Tb906       O910   2.350       .  S
Tb906       O927   2.362   1_545  S
O907       Tb911   2.357       .  S
O908        C919   1.261       .  A
O908      Tb1327   2.359       .  S
C909        O914   1.267       .  A
C909        O930   1.267       .  A
C909        C988   1.427       .  S
O910        C926   1.261       .  A
Tb911      O1324   2.355   1_545  S
Tb911       O915   2.326       .  S
Tb911       O920   2.361       .  S
Tb911       O914   2.343       .  S
Tb911      O1337   2.358   1_545  S
Tb911       O923   2.326       .  S
Tb911      O1329   2.352   1_545  S
O912       C1334   1.263       .  A
O912      Tb1322   2.365       .  S
O913      Tb1327   2.348       .  S
O915        C925   1.272       .  A
C916        O929   1.267       .  A
C916       C1016   1.436       .  S
C918       O1328   1.262       .  A
C918        O927   1.262       .  A
C918       C1405   1.443       .  S
C919        O921   1.260       .  A
C919        C996   1.435       .  S
O921      Tb1327   2.350       .  S
O922        C925   1.272       .  A
O923        C924   1.271       .  A
C926        O928   1.264       .  A
C926       C1009   1.441       .  S
O929      Tb1322   2.349       .  S
C931        C933   1.536       .  S
C931        C935   1.551       .  S
C931        C934   1.537       .  S
C931        C978   1.546   1_554  S
C932        C936   1.535       .  S
C932        C938   1.543       .  S
C932        C937   1.540       .  S
C932        C981   1.541       .  S
C933        C941   1.376       .  A
C933        C936   1.398       .  A
C934        C945   1.377       .  A
C934        C937   1.400       .  A
C935        C949   1.388       .  A
C935        C938   1.414       .  A
C936        C939   1.379       .  A
C937        C943   1.378       .  A
C938        C946   1.381       .  A
C939        N940   1.357       .  A
C939        H952   1.081       .  S
N940        C941   1.355       .  A
N940       C1005   1.404       .  S
C941        H942   1.082   1_554  S
C943        N944   1.356       .  A
C943        H953   1.080       .  S
N944        C945   1.356       .  A
N944        C997   1.404       .  S
C945        H951   1.082   1_554  S
C946        N947   1.350       .  A
C946        H948   1.083       .  S
N947        C949   1.353       .  A
N947       C1001   1.406       .  S
C949        H950   1.081   1_554  S
C954        C956   1.531       .  S
C954        C958   1.553       .  S
C954        C957   1.537       .  S
C954        C982   1.546       .  S
C955        C959   1.535       .  S
C955        C961   1.561       .  S
C955        C960   1.527       .  S
C955        C977   1.551       .  S
C956        C964   1.378       .  A
C956        C959   1.395       .  A
C957        C968   1.379       .  A
C957        C960   1.397       .  A
C958        C972   1.385       .  A
C958        C961   1.425       .  A
C959        C962   1.377       .  A
C960        C966   1.370       .  A
C961        C969   1.390       .  A
C962        N963   1.354       .  A
C962        H975   1.080       .  S
N963        C964   1.355       .  A
N963        C993   1.402       .  S
C964        H965   1.081       .  S
C966        N967   1.351       .  A
C966        H976   1.083       .  S
N967        C968   1.356       .  A
N967        C985   1.396       .  S
C968        H974   1.080       .  S
C969        N970   1.353       .  A
C969        H971   1.078       .  S
N970        C972   1.350       .  A
N970        C992   1.409       .  S
C972        H973   1.081       .  S
C977        H979   1.086       .  S
C977       C1186   1.351       .  D
C978        H980   1.086       .  S
C978       C1185   1.355       .  D
C981        H983   1.079       .  S
C981        C982   1.355       .  D
C982        H984   1.086       .  S
C985        C986   1.201       .  T
C986        C987   1.404       .  S
C987        C988   1.201       .  T
C989       C1334   1.446       .  S
C989        C990   1.212       .  T
C990        C991   1.422       .  S
C991        C992   1.212       .  T
C993        C994   1.206       .  T
C994        C995   1.412       .  S
C995        C996   1.206       .  T
C997        C998   1.207       .  T
C998        C999   1.415       .  S
C999       C1000   1.207       .  T
C1001      C1002   1.209       .  T
C1002      C1003   1.417       .  S
C1003      C1004   1.209       .  T
C1004      C1308   1.440       .  S
C1005      C1006   1.207       .  T
C1006      C1007   1.414       .  S
C1007      C1008   1.207       .  T
C1009      C1010   1.210       .  T
C1010      C1011   1.419       .  S
C1011      C1012   1.210       .  T
C1013      C1014   1.207       .  T
C1014      C1015   1.413       .  S
C1015      C1016   1.206       .  T
C1017      C1018   1.209       .  T
C1018      C1019   1.417       .  S
C1019      C1020   1.209       .  T
C1021      C1022   1.207       .  T
C1022      C1023   1.415       .  S
C1023      C1024   1.208       .  T
C1025      C1026   1.205       .  T
C1026      C1027   1.411       .  S
C1027      C1028   1.205       .  T
C1029      N1050   1.410       .  S
C1029      C1030   1.213       .  T
C1030      C1031   1.423       .  S
C1031      C1032   1.213       .  T
C1033      H1035   1.080       .  S
C1033      C1034   1.356       .  D
C1034      H1036   1.086       .  S
C1037      H1039   1.086       .  S
C1037      C1038   1.352       .  D
C1038      H1040   1.078       .  S
C1041      C1043   1.537       .  S
C1041      C1045   1.541       .  S
C1041      C1044   1.541       .  S
C1041      C1245   1.546       .  S
C1042      C1046   1.560       .  S
C1042      C1048   1.537       .  S
C1042      C1047   1.537       .  S
C1042      C1241   1.551       .  S
C1043      C1051   1.379       .  A
C1044      C1055   1.376       .  A
C1045      C1059   1.379       .  A
C1046      C1049   1.391       .  A
C1047      C1053   1.378       .  A
C1048      C1056   1.380       .  A
C1049      N1050   1.354   1_556  A
C1049      H1062   1.080       .  S
C1051      H1052   1.079       .  S
C1053      H1063   1.082       .  S
N1054      C1055   1.354       .  A
N1054      C1233   1.404       .  S
C1055      H1061   1.082       .  S
C1056      N1057   1.357   1_556  A
C1056      H1058   1.081       .  S
N1057      C1232   1.404       .  S
C1059      H1060   1.083       .  S
C1064      C1066   1.536       .  S
C1064      C1068   1.538       .  S
C1064      C1067   1.540       .  S
C1064      C1242   1.547       .  S
C1065      C1069   1.538       .  S
C1065      C1071   1.539       .  S
C1065      C1070   1.558       .  S
C1065      C1246   1.554       .  S
C1066      C1074   1.380       .  A
C1066      C1069   1.400       .  A
C1067      C1078   1.376       .  A
C1067      C1070   1.413       .  A
C1068      C1082   1.378       .  A
C1068      C1071   1.402       .  A
C1069      C1072   1.380       .  A
C1070      C1076   1.386       .  A
C1071      C1079   1.378       .  A
C1072      N1073   1.354       .  A
C1072      H1085   1.078       .  S
N1073      C1074   1.353       .  A
N1073      C1228   1.404       .  S
C1074      H1075   1.083       .  S
C1076      N1077   1.356       .  A
C1076      H1086   1.078       .  S
N1077      C1078   1.353       .  A
N1077      C1221   1.404       .  S
C1078      H1084   1.082       .  S
C1079      N1080   1.356       .  A
C1079      H1081   1.083       .  S
N1080      C1082   1.357       .  A
N1080      C1220   1.405       .  S
C1082      H1083   1.081       .  S
C1087      O1102   1.259       .  A
C1087      O1089   1.260       .  A
C1087      C1240   1.434       .  S
Tb1088     O1527   2.346   1_545  S
Tb1088     O1510   2.365   1_545  S
Tb1088     O1099   2.335       .  S
Tb1088     O1092   2.354       .  S
Tb1088     O1109   2.365   1_545  S
O1089     Tb1093   2.355       .  S
O1090      C1101   1.260       .  A
O1090     Tb1509   2.351       .  S
C1091      O1096   1.271       .  A
C1091      O1112   1.268       .  A
C1091      C1208   1.443       .  S
Tb1093     O1506   2.371   1_545  S
Tb1093     O1102   2.353       .  S
Tb1093     O1096   2.358       .  S
Tb1093     O1519   2.357   1_545  S
Tb1093     O1105   2.323       .  S
Tb1093     O1511   2.345   1_545  S
O1094      C1516   1.259       .  A
O1094     Tb1504   2.351       .  S
O1095     Tb1509   2.348       .  S
O1097      C1107   1.274       .  A
C1098      O1111   1.272       .  A
C1098      C1236   1.440       .  S
C1100      O1510   1.260       .  A
C1100      O1109   1.259       .  A
C1100      C1628   1.443       .  S
C1101      O1103   1.262       .  A
C1101      C1216   1.435       .  S
O1103     Tb1509   2.359       .  S
O1104      C1107   1.271       .  A
O1105      C1106   1.267       .  A
C1106      C1133   1.455       .  S
C1107      C1132   1.452       .  S
C1108      O1110   1.260   1_554  A
C1108      C1229   1.438       .  S
O1111     Tb1504   2.345       .  S
C1113      O1128   1.261       .  A
C1113      O1115   1.259       .  A
C1113      C1225   1.437       .  S
Tb1114     O1136   2.355       .  S
Tb1114     O1553   2.351   1_545  S
Tb1114     O1536   2.364   1_545  S
Tb1114     O1125   2.325   1_655  S
Tb1114     O1118   2.356       .  S
Tb1114     O1135   2.365   1_545  S
O1115     Tb1119   2.349       .  S
O1116      C1127   1.262       .  A
O1116     Tb1535   2.373       .  S
C1117      O1122   1.272       .  A
C1117      O1138   1.270       .  A
C1117      C1196   1.434       .  S
O1118      C1134   1.263       .  A
Tb1119     O1532   2.370   1_545  S
Tb1119     O1123   2.331       .  S
Tb1119     O1128   2.366       .  S
Tb1119     O1122   2.355       .  S
Tb1119     O1545   2.364   1_545  S
Tb1119     O1131   2.320       .  S
Tb1119     O1537   2.348   1_545  S
O1120      C1542   1.262       .  A
O1120     Tb1530   2.358       .  S
O1121     Tb1535   2.352       .  S
O1123      C1133   1.272       .  A
C1124      O1137   1.268       .  A
C1124      C1224   1.438       .  S
C1126      O1536   1.262       .  A
C1126      O1135   1.262       .  A
C1126      C1613   1.446       .  S
C1127      O1129   1.259       .  A
C1127      C1204   1.444       .  S
O1129     Tb1535   2.356       .  S
O1130      C1133   1.270       .  A
O1131      C1132   1.269       .  A
C1134      O1136   1.262       .  A
C1134      C1217   1.439       .  S
O1137     Tb1530   2.351       .  S
C1139      C1141   1.535       .  S
C1139      C1143   1.536       .  S
C1139      C1142   1.547       .  S
C1139      C1186   1.545       .  S
C1140      C1144   1.539       .  S
C1140      C1146   1.537       .  S
C1140      C1145   1.544       .  S
C1140      C1189   1.548       .  S
C1141      C1149   1.377       .  A
C1141      C1144   1.400       .  A
C1142      C1153   1.381       .  A
C1142      C1145   1.409       .  A
C1143      C1157   1.376       .  A
C1143      C1146   1.399       .  A
C1144      C1147   1.377       .  A
C1145      C1151   1.377       .  A
C1146      C1154   1.378       .  A
C1147      N1148   1.354       .  A
C1147      H1160   1.083       .  S
N1148      C1149   1.356       .  A
N1148      C1213   1.402       .  S
C1149      H1150   1.079       .  S
C1151      N1152   1.357       .  A
C1151      H1161   1.082       .  S
N1152      C1153   1.360       .  A
N1152      C1205   1.407       .  S
C1153      H1159   1.082       .  S
C1154      N1155   1.355       .  A
C1154      H1156   1.075       .  S
N1155      C1157   1.352       .  A
N1155      C1209   1.401       .  S
C1157      H1158   1.083       .  S
C1162      C1164   1.558       .  S
C1162      C1166   1.540       .  S
C1162      C1165   1.539       .  S
C1162      C1190   1.554       .  S
C1163      C1167   1.534       .  S
C1163      C1169   1.539       .  S
C1163      C1168   1.535       .  S
C1163      C1185   1.540       .  S
C1164      C1172   1.389       .  A
C1164      C1167   1.407       .  A
C1165      C1176   1.376       .  A
C1165      C1168   1.401       .  A
C1166      C1180   1.383       .  A
C1166      C1169   1.409       .  A
C1167      C1170   1.376       .  A
C1168      C1174   1.376       .  A
C1169      C1177   1.384       .  A
C1170      N1171   1.354       .  A
C1170      H1183   1.082       .  S
N1171      C1172   1.359       .  A
N1171      C1201   1.408       .  S
C1172      H1173   1.080       .  S
C1174      N1175   1.355       .  A
C1174      H1184   1.081       .  S
N1175      C1176   1.356       .  A
N1175      C1193   1.401       .  S
C1176      H1182   1.083       .  S
C1177      N1178   1.350       .  A
C1177      H1179   1.083       .  S
N1178      C1180   1.349       .  A
N1178      C1200   1.403       .  S
C1180      H1181   1.078       .  S
C1185      H1187   1.080       .  S
C1186      H1188   1.074       .  S
C1189      H1191   1.077       .  S
C1189      C1190   1.356       .  D
C1190      H1192   1.086       .  S
C1193      C1194   1.205       .  T
C1194      C1195   1.411       .  S
C1195      C1196   1.205       .  T
C1197      C1542   1.436       .  S
C1197      C1198   1.206       .  T
C1198      C1199   1.414       .  S
C1199      C1200   1.207       .  T
C1201      C1202   1.211       .  T
C1202      C1203   1.421       .  S
C1203      C1204   1.211       .  T
C1205      C1206   1.211       .  T
C1206      C1207   1.420       .  S
C1207      C1208   1.210       .  T
C1209      C1210   1.205       .  T
C1210      C1211   1.411       .  S
C1211      C1212   1.205       .  T
C1212      C1516   1.434       .  S
C1213      C1214   1.206       .  T
C1214      C1215   1.413       .  S
C1215      C1216   1.206       .  T
C1217      C1218   1.208       .  T
C1218      C1219   1.416       .  S
C1219      C1220   1.208       .  T
C1221      C1222   1.208       .  T
C1222      C1223   1.415       .  S
C1223      C1224   1.207       .  T
C1225      C1226   1.207       .  T
C1226      C1227   1.414       .  S
C1227      C1228   1.207       .  T
C1229      C1230   1.207       .  T
C1230      C1231   1.415       .  S
C1231      C1232   1.208       .  T
C1233      C1234   1.208       .  T
C1234      C1235   1.416       .  S
C1235      C1236   1.208       .  T
C1237      C1238   1.206       .  T
C1238      C1239   1.412       .  S
C1239      C1240   1.205       .  T
C1241      H1243   1.086       .  S
C1241      C1242   1.354       .  D
C1242      H1244   1.078       .  S
C1245      H1247   1.072       .  S
C1245      C1246   1.356       .  D
C1246      H1248   1.086       .  S
C1249      C1251   1.549       .  S
C1249      C1253   1.536       .  S
C1249      C1252   1.536       .  S
C1249      C1453   1.551       .  S
C1250      C1254   1.536       .  S
C1250      C1256   1.540       .  S
C1250      C1255   1.540       .  S
C1250      C1449   1.541       .  S
C1251      C1259   1.387       .  A
C1251      C1462   1.415       .  A
C1252      C1263   1.375       .  A
C1252      C1463   1.406       .  A
C1253      C1267   1.378       .  A
C1253      C1464   1.398       .  A
C1254      C1459   1.395       .  A
C1254      C1257   1.378       .  A
C1255      C1460   1.404       .  A
C1255      C1261   1.378       .  A
C1256      C1461   1.411       .  A
C1256      C1264   1.380       .  A
C1257      N1258   1.354       .  A
C1257      H1270   1.082       .  S
N1258      C1467   1.355       .  A
N1258      C1653   1.402       .  S
C1259      N1466   1.351       .  A
C1259      H1260   1.080       .  S
C1261      N1470   1.355       .  A
C1261      H1271   1.082       .  S
N1262      C1469   1.356   1_554  A
N1262      C1263   1.354       .  A
N1262      C1441   1.403       .  S
C1263      H1269   1.082       .  S
C1264      N1265   1.355       .  A
C1264      H1266   1.082       .  S
N1265      C1475   1.355       .  A
N1265      C1440   1.407       .  S
C1267      N1473   1.356       .  A
C1267      H1268   1.082       .  S
C1272      C1274   1.547       .  S
C1272      C1276   1.535       .  S
C1272      C1275   1.537       .  S
C1272      C1450   1.546       .  S
C1273      C1277   1.543       .  S
C1273      C1279   1.533       .  S
C1273      C1278   1.540       .  S
C1273      C1454   1.542       .  S
C1274      C1282   1.386       .  A
C1274      C1277   1.407       .  A
C1275      C1286   1.374       .  A
C1275      C1278   1.403       .  A
C1276      C1290   1.374       .  A
C1276      C1279   1.400       .  A
C1277      C1280   1.379       .  A
C1278      C1284   1.378       .  A
C1279      C1287   1.377       .  A
C1280      N1281   1.353       .  A
C1280      H1293   1.083       .  S
N1281      C1282   1.355       .  A
N1281      C1436   1.405       .  S
C1282      H1283   1.081       .  S
C1284      N1285   1.356       .  A
C1284      H1294   1.082       .  S
N1285      C1286   1.354       .  A
N1285      C1429   1.400       .  S
C1286      H1292   1.082       .  S
C1287      N1288   1.357       .  A
C1287      H1289   1.083       .  S
N1288      C1290   1.355       .  A
N1288      C1428   1.401       .  S
C1290      H1291   1.082       .  S
C1295      O1310   1.261       .  A
C1295      O1297   1.262       .  A
C1295      C1448   1.437       .  S
Tb1296     O1526   2.359       .  S
Tb1296     O1307   2.319       .  S
Tb1296     O1300   2.352       .  S
Tb1296     O1317   2.362       .  S
O1297     Tb1301   2.359       .  S
O1298      C1309   1.260   1_545  A
C1299      O1304   1.270       .  A
C1299      O1320   1.271       .  A
C1299      C1416   1.439       .  S
O1300      C1524   1.260       .  A
Tb1301     O1513   2.320   1_554  S
Tb1301     O1310   2.354       .  S
Tb1301     O1304   2.353       .  S
Tb1301     O1313   2.321       .  S
O1305      C1315   1.268       .  A
O1305     Tb1509   2.316       .  S
C1306      O1319   1.270       .  A
C1306      C1444   1.436       .  S
C1308      O1317   1.261       .  A
C1309      O1311   1.260       .  A
C1309      C1424   1.442       .  S
O1312      C1315   1.271       .  A
O1313      C1314   1.268       .  A
C1314      C1341   1.444       .  S
C1315      C1340   1.447       .  S
C1316      O1508   1.260       .  A
C1316      O1318   1.261       .  A
C1316      C1437   1.443       .  S
O1318     Tb1504   2.364       .  S
C1321      O1336   1.261       .  A
C1321      O1323   1.260       .  A
C1321      C1433   1.440       .  S
Tb1322     O1344   2.349       .  S
Tb1322     O1333   2.331       .  S
Tb1322     O1326   2.354       .  S
Tb1322     O1343   2.364       .  S
O1323     Tb1327   2.357       .  S
O1324      C1335   1.261       .  A
C1325      O1330   1.269       .  A
C1325      O1346   1.270       .  A
C1325      C1404   1.438       .  S
O1326      C1342   1.262       .  A
Tb1327     O1331   2.325       .  S
Tb1327     O1336   2.362       .  S
Tb1327     O1330   2.345       .  S
Tb1327     O1339   2.328       .  S
O1331      C1341   1.270       .  A
C1332      O1345   1.269       .  A
C1332      C1432   1.432       .  S
C1334      O1343   1.262       .  A
C1335      O1337   1.262       .  A
C1335      C1412   1.439       .  S
O1338      C1341   1.272       .  A
O1339      C1340   1.269       .  A
C1342      O1344   1.261       .  A
C1342      C1425   1.434       .  S
C1347      C1349   1.536       .  S
C1347      C1351   1.535       .  S
C1347      C1350   1.546       .  S
C1347      C1394   1.542   1_554  S
C1348      C1352   1.553       .  S
C1348      C1354   1.540       .  S
C1348      C1353   1.537       .  S
C1348      C1397   1.545       .  S
C1349      C1357   1.375       .  A
C1349      C1352   1.402       .  A
C1350      C1361   1.384       .  A
C1350      C1353   1.403       .  A
C1351      C1365   1.376       .  A
C1351      C1354   1.401       .  A
C1352      C1355   1.390       .  A
C1353      C1359   1.374       .  A
C1354      C1362   1.380       .  A
C1355      N1356   1.358       .  A
C1355      H1368   1.079       .  S
N1356      C1357   1.351       .  A
N1356      C1421   1.406       .  S
C1357      H1358   1.082       .  S
C1359      N1360   1.353       .  A
C1359      H1369   1.082       .  S
N1360      C1361   1.359       .  A
N1360      C1413   1.404       .  S
C1361      H1367   1.081   1_554  S
C1362      N1363   1.357       .  A
C1362      H1364   1.083       .  S
N1363      C1365   1.356       .  A
N1363      C1417   1.405       .  S
C1365      H1366   1.082       .  S
C1370      C1372   1.536       .  S
C1370      C1374   1.531       .  S
C1370      C1373   1.544       .  S
C1370      C1398   1.539       .  S
C1371      C1375   1.553       .  S
C1371      C1377   1.544       .  S
C1371      C1376   1.539       .  S
C1371      C1393   1.548       .  S
C1372      C1380   1.375       .  A
C1372      C1375   1.405       .  A
C1373      C1384   1.382       .  A
C1373      C1376   1.404       .  A
C1374      C1388   1.376       .  A
C1374      C1377   1.400       .  A
C1375      C1378   1.392       .  A
C1376      C1382   1.375       .  A
C1377      C1385   1.382       .  A
C1378      N1379   1.356       .  A
C1378      H1391   1.080       .  S
N1379      C1380   1.348       .  A
N1379      C1409   1.405       .  S
C1380      H1381   1.082       .  S
C1382      N1383   1.355       .  A
C1382      H1392   1.083       .  S
N1383      C1384   1.359       .  A
N1383      C1401   1.404       .  S
C1384      H1390   1.082       .  S
C1385      N1386   1.359       .  A
C1385      H1387   1.082       .  S
N1386      C1388   1.356       .  A
N1386      C1408   1.407       .  S
C1388      H1389   1.083       .  S
C1393      H1395   1.086       .  S
C1393      C1602   1.355       .  D
C1394      H1396   1.083       .  S
C1394      C1601   1.352       .  D
C1397      H1399   1.085       .  S
C1397      C1398   1.351       .  D
C1398      H1400   1.080       .  S
C1401      C1402   1.208       .  T
C1402      C1403   1.415       .  S
C1403      C1404   1.208       .  T
C1405      C1406   1.211       .  T
C1406      C1407   1.420       .  S
C1407      C1408   1.211       .  T
C1409      C1410   1.208       .  T
C1410      C1411   1.416       .  S
C1411      C1412   1.208       .  T
C1413      C1414   1.208       .  T
C1414      C1415   1.416       .  S
C1415      C1416   1.208       .  T
C1417      C1418   1.208       .  T
C1418      C1419   1.416       .  S
C1419      C1420   1.208       .  T
C1421      C1422   1.210       .  T
C1422      C1423   1.419       .  S
C1423      C1424   1.210       .  T
C1425      C1426   1.205       .  T
C1426      C1427   1.411       .  S
C1427      C1428   1.205       .  T
C1429      C1430   1.204       .  T
C1430      C1431   1.409       .  S
C1431      C1432   1.204       .  T
C1433      C1434   1.209       .  T
C1434      C1435   1.417       .  S
C1435      C1436   1.209       .  T
C1437      C1438   1.210       .  T
C1438      C1439   1.419       .  S
C1439      C1440   1.210       .  T
C1441      C1442   1.207       .  T
C1442      C1443   1.413       .  S
C1443      C1444   1.206       .  T
C1445      N1466   1.402       .  S
C1445      C1446   1.206       .  T
C1446      C1447   1.413       .  S
C1447      C1448   1.207       .  T
C1449      H1451   1.081       .  S
C1449      C1450   1.355       .  D
C1450      H1452   1.085       .  S
C1453      H1455   1.085       .  S
C1453      C1454   1.358       .  D
C1454      H1456   1.078       .  S
C1457      C1459   1.533       .  S
C1457      C1461   1.549       .  S
C1457      C1460   1.543       .  S
C1457      C1661   1.546       .  S
C1458      C1462   1.539   1_556  S
C1458      C1464   1.534   1_556  S
C1458      C1463   1.549   1_556  S
C1458      C1657   1.548       .  S
C1459      C1467   1.379       .  A
C1460      C1471   1.378       .  A
C1461      C1475   1.383       .  A
C1462      C1465   1.379   1_554  A
C1463      C1469   1.382   1_554  A
C1464      C1472   1.377   1_554  A
C1465      N1466   1.348   1_556  A
C1465      H1478   1.083       .  S
C1467      H1468   1.081       .  S
C1469      H1479   1.081       .  S
N1470      C1471   1.357       .  A
N1470      C1649   1.403       .  S
C1471      H1477   1.082       .  S
C1472      N1473   1.356   1_556  A
C1472      H1474   1.079       .  S
N1473      C1648   1.404       .  S
C1475      H1476   1.081       .  S
C1480      C1482   1.545       .  S
C1480      C1484   1.536       .  S
C1480      C1483   1.536       .  S
C1480      C1658   1.544       .  S
C1481      C1485   1.545       .  S
C1481      C1487   1.545       .  S
C1481      C1486   1.534       .  S
C1481      C1662   1.544       .  S
C1482      C1490   1.381       .  A
C1482      C1485   1.406       .  A
C1483      C1494   1.374       .  A
C1483      C1486   1.399       .  A
C1484      C1498   1.378       .  A
C1484      C1487   1.405       .  A
C1485      C1488   1.380       .  A
C1486      C1492   1.377       .  A
C1487      C1495   1.383       .  A
C1488      N1489   1.359       .  A
C1488      H1501   1.081       .  S
N1489      C1490   1.359       .  A
N1489      C1644   1.410       .  S
C1490      H1491   1.082       .  S
C1492      N1493   1.354       .  A
C1492      H1502   1.082       .  S
N1493      C1494   1.353       .  A
N1493      C1637   1.397       .  S
C1494      H1500   1.083       .  S
C1495      N1496   1.356       .  A
C1495      H1497   1.083       .  S
N1496      C1498   1.353       .  A
N1496      C1636   1.406       .  S
C1498      H1499   1.079       .  S
C1503      O1518   1.261       .  A
C1503      O1505   1.262       .  A
C1503      C1656   1.436       .  S
Tb1504     O1515   2.339       .  S
Tb1504     O1508   2.363       .  S
Tb1504     O1525   2.360       .  S
O1505     Tb1509   2.353       .  S
O1506      C1517   1.261       .  A
C1507      O1512   1.269       .  A
C1507      O1528   1.270       .  A
C1507      C1624   1.442       .  S
Tb1509     O1518   2.354       .  S
Tb1509     O1512   2.353       .  S
Tb1509     O1521   2.317       .  S
O1513      C1523   1.269       .  A
C1514      O1527   1.270       .  A
C1514      C1652   1.437       .  S
C1516      O1525   1.260       .  A
C1517      O1519   1.259       .  A
C1517      C1632   1.443       .  S
O1520      C1523   1.269       .  A
O1521      C1522   1.269       .  A
C1522      C1549   1.452       .  S
C1523      C1548   1.442       .  S
C1524      O1526   1.261       .  A
C1524      C1645   1.437       .  S
C1529      O1544   1.261       .  A
C1529      O1531   1.260       .  A
C1529      C1641   1.447       .  S
Tb1530     O1552   2.357       .  S
Tb1530     O1541   2.316       .  S
Tb1530     O1534   2.361       .  S
Tb1530     O1551   2.349       .  S
O1531     Tb1535   2.367       .  S
O1532      C1543   1.261       .  A
C1533      O1538   1.269       .  A
C1533      O1554   1.268       .  A
C1533      C1612   1.433       .  S
O1534      C1550   1.262       .  A
Tb1535     O1539   2.342       .  S
Tb1535     O1544   2.368       .  S
Tb1535     O1538   2.349       .  S
Tb1535     O1547   2.323       .  S
O1539      C1549   1.277       .  A
C1540      O1553   1.270       .  A
C1540      C1640   1.429       .  S
C1542      O1551   1.260       .  A
C1543      O1545   1.260       .  A
C1543      C1620   1.446       .  S
O1546      C1549   1.272       .  A
O1547      C1548   1.268       .  A
C1550      O1552   1.261       .  A
C1550      C1633   1.440       .  S
C1555      C1557   1.544       .  S
C1555      C1559   1.534       .  S
C1555      C1558   1.543       .  S
C1555      C1602   1.540       .  S
C1556      C1560   1.552       .  S
C1556      C1562   1.539       .  S
C1556      C1561   1.539       .  S
C1556      C1605   1.545       .  S
C1557      C1565   1.380       .  A
C1557      C1560   1.408       .  A
C1558      C1569   1.382       .  A
C1558      C1561   1.402       .  A
C1559      C1573   1.378       .  A
C1559      C1562   1.398       .  A
C1560      C1563   1.391       .  A
C1561      C1567   1.376       .  A
C1562      C1570   1.380       .  A
C1563      N1564   1.356       .  A
C1563      H1576   1.081       .  S
N1564      C1565   1.351       .  A
N1564      C1629   1.408       .  S
C1565      H1566   1.082       .  S
C1567      N1568   1.355       .  A
C1567      H1577   1.081       .  S
N1568      C1569   1.359       .  A
N1568      C1621   1.407       .  S
C1569      H1575   1.083       .  S
C1570      N1571   1.357       .  A
C1570      H1572   1.082       .  S
N1571      C1573   1.357       .  A
N1571      C1625   1.406       .  S
C1573      H1574   1.082       .  S
C1578      C1580   1.542       .  S
C1578      C1582   1.537       .  S
C1578      C1581   1.538       .  S
C1578      C1606   1.539       .  S
C1579      C1583   1.552       .  S
C1579      C1585   1.541       .  S
C1579      C1584   1.537       .  S
C1579      C1601   1.543       .  S
C1580      C1588   1.378       .  A
C1580      C1583   1.405       .  A
C1581      C1592   1.379       .  A
C1581      C1584   1.400       .  A
C1582      C1596   1.379       .  A
C1582      C1585   1.400       .  A
C1583      C1586   1.390       .  A
C1584      C1590   1.374       .  A
C1585      C1593   1.381       .  A
C1586      N1587   1.359       .  A
C1586      H1599   1.081       .  S
N1587      C1588   1.352       .  A
N1587      C1617   1.410       .  S
C1588      H1589   1.082       .  S
C1590      N1591   1.353       .  A
C1590      H1600   1.083       .  S
N1591      C1592   1.356       .  A
N1591      C1609   1.400       .  S
C1592      H1598   1.081       .  S
C1593      N1594   1.358       .  A
C1593      H1595   1.083       .  S
N1594      C1596   1.358       .  A
N1594      C1616   1.409       .  S
C1596      H1597   1.082       .  S
C1601      H1603   1.084       .  S
C1602      H1604   1.078       .  S
C1605      H1607   1.086       .  S
C1605      C1606   1.354       .  D
C1606      H1608   1.078       .  S
C1609      C1610   1.204       .  T
C1610      C1611   1.410       .  S
C1611      C1612   1.204       .  T
C1613      C1614   1.212       .  T
C1614      C1615   1.423       .  S
C1615      C1616   1.212       .  T
C1617      C1618   1.213       .  T
C1618      C1619   1.423       .  S
C1619      C1620   1.212       .  T
C1621      C1622   1.210       .  T
C1622      C1623   1.419       .  S
C1623      C1624   1.210       .  T
C1625      C1626   1.210       .  T
C1626      C1627   1.419       .  S
C1627      C1628   1.210       .  T
C1629      C1630   1.211       .  T
C1630      C1631   1.420       .  S
C1631      C1632   1.211       .  T
C1633      C1634   1.209       .  T
C1634      C1635   1.418       .  S
C1635      C1636   1.209       .  T
C1637      C1638   1.202       .  T
C1638      C1639   1.406       .  S
C1639      C1640   1.202       .  T
C1641      C1642   1.213       .  T
C1642      C1643   1.424       .  S
C1643      C1644   1.213       .  T
C1645      C1646   1.207       .  T
C1646      C1647   1.414       .  S
C1647      C1648   1.207       .  T
C1649      C1650   1.207       .  T
C1650      C1651   1.414       .  S
C1651      C1652   1.207       .  T
C1653      C1654   1.206       .  T
C1654      C1655   1.413       .  S
C1655      C1656   1.206       .  T
C1657      H1659   1.086       .  S
C1657      C1658   1.353       .  D
C1658      H1660   1.081       .  S
C1661      H1663   1.086       .  S
C1661      C1662   1.358       .  D
C1662      H1664   1.081       .  S
