geometry optimzed in LAMMPS
_audit_creation_date              2020-11-30 
_audit_creation_method            'lammps2cif' 
_symmetry_space_group_name_H-M    'P1' 
_symmetry_Int_Tables_number       1 
_symmetry_cell_setting            triclinic 
loop_ 
_symmetry_equiv_pos_as_xyz 
  x,y,z 
_cell_length_a                    34.5713789 
_cell_length_b                    34.56065235121056 
_cell_length_c                    58.31635190723567 
_cell_angle_alpha                 90.03691665449372 
_cell_angle_beta                  90.1144320046801 
_cell_angle_gamma                 90.55147417764724 
loop_ 
_atom_site_label 
_atom_site_type_symbol 
_atom_site_fract_x 
_atom_site_fract_y 
_atom_site_fract_z 
_atom_site_charge 
N1          N  0.34917572  0.25638898  0.40759765    -0.35700
N2          N  0.38112943  0.19559015  0.37874937    -0.56200
N3          N  0.39726807  0.25295258  0.34343396    -0.35600
N4          N  0.36854449  0.31436690  0.37291861    -0.56200
C5          C  0.34814282  0.22656576  0.42257928     0.27900
C6          C  0.34277510  0.28927142  0.41958319     0.27900
C7          C  0.41801187  0.22247811  0.33566415     0.27900
C8          C  0.41068214  0.28522170  0.33265827     0.27900
C9          C  0.36642134  0.17326912  0.39576156     0.36500
C10         C  0.39275767  0.17122725  0.36196069     0.36600
C11         C  0.34423072  0.33445611  0.38644414     0.36500
C12         C  0.36986856  0.33313794  0.35260509     0.36600
C13         C  0.34060554  0.24055373  0.44439316    -0.20900
C14         C  0.33740507  0.28016149  0.44253440    -0.20900
C15         C  0.44471869  0.23566028  0.31964104    -0.20900
C16         C  0.44040671  0.27504731  0.31795190    -0.20900
C17         C  0.36943281  0.13454887  0.38993667    -0.22000
C18         C  0.38663329  0.13321952  0.36881239    -0.22000
C19         C  0.32997230  0.36611883  0.37467085    -0.22000
C20         C  0.34562137  0.36483258  0.35308188    -0.22000
C21         C  0.35153460  0.18694641  0.41687640    -0.17300
C22         C  0.33746744  0.32636213  0.40981796    -0.17300
C23         C  0.39481992  0.32297563  0.33444063    -0.17300
C24         C  0.41185050  0.18289299  0.34153210    -0.17300
H25         H  0.33733569  0.22389056  0.45999078     0.15600
H26         H  0.33056235  0.29972633  0.45640414     0.15600
H27         H  0.46532149  0.21892572  0.30997455     0.15600
H28         H  0.45725499  0.29384720  0.30691355     0.15600
H29         H  0.36098238  0.10963053  0.40003859     0.13900
H30         H  0.39444021  0.10692133  0.36002792     0.13900
H31         H  0.31012213  0.38774901  0.38086259     0.13900
H32         H  0.33951242  0.38490712  0.33935560     0.13900
H33         H  0.34946322  0.25390800  0.38988373     0.27100
H34         H  0.37238472  0.25118470  0.35336965     0.27100
N35         N  0.13476399  0.19586935  0.37726387    -0.35700
N36         N  0.16152525  0.25702975  0.40790724    -0.56200
N37         N  0.13579940  0.31475997  0.37482653    -0.35600
N38         N  0.10548863  0.25370696  0.34565128    -0.56200
C39         C  0.14161063  0.17539529  0.39660114     0.27900
C40         C  0.11319794  0.17316356  0.36318508     0.27900
C41         C  0.14371970  0.33729788  0.39322663     0.27900
C42         C  0.11379066  0.33580321  0.36032464     0.27900
C43         C  0.17795413  0.22620443  0.41817870     0.36500
C44         C  0.17921107  0.28886888  0.41659748     0.36600
C45         C  0.10053537  0.22166976  0.33259968     0.36500
C46         C  0.10017081  0.28432366  0.33157694     0.36600
C47         C  0.12446977  0.13905020  0.39463637    -0.20900
C48         C  0.10630071  0.13777874  0.37364839    -0.20900
C49         C  0.12697075  0.37329926  0.39019879    -0.20900
C50         C  0.10767219  0.37214663  0.36962006    -0.20900
C51         C  0.20591739  0.23852129  0.43369966    -0.22000
C52         C  0.20672674  0.27829079  0.43268734    -0.22000
C53         C  0.09196882  0.23205365  0.31019636    -0.22000
C54         C  0.09169046  0.27166048  0.30956242    -0.22000
C55         C  0.16600882  0.18738641  0.41485399    -0.17300
C56         C  0.10087652  0.18317447  0.34083588    -0.17300
C57         C  0.10060683  0.32352923  0.33850921    -0.17300
C58         C  0.16831255  0.32724071  0.41164695    -0.17300
H59         H  0.12520957  0.11555799  0.40686002     0.15600
H60         H  0.09008685  0.11338896  0.36687020     0.15600
H61         H  0.12854104  0.39814053  0.40144673     0.15600
H62         H  0.09125906  0.39565351  0.36235092     0.15600
H63         H  0.22352208  0.22076751  0.44479577     0.13900
H64         H  0.22502671  0.29723875  0.44287272     0.13900
H65         H  0.08627995  0.21309323  0.29577647     0.13900
H66         H  0.08584033  0.28909801  0.29456490     0.13900
H67         H  0.14790344  0.22193249  0.37278748     0.27100
H68         H  0.14849291  0.28833630  0.37120508     0.27100
N69         N  0.32898894  0.45988250  0.47348476    -0.05200
N70         N  0.34981294  0.42858779  0.46966733    -0.57300
N71         N  0.30140638  0.05153206  0.46111123    -0.04800
N72         N  0.30559782  0.08270663  0.44833598    -0.59400
N73         N  0.32915121  0.04961575  0.47652837    -0.04400
N74         N  0.35330965  0.07936446  0.47422932    -0.57300
N75         N  0.30105461  0.46239667  0.45823776    -0.04100
N76         N  0.30216905  0.43309854  0.44380527    -0.59800
C77         C  0.33262967  0.41224458  0.45108641     0.97000
C78         C  0.33786888  0.09995809  0.45671288     0.96800
N79         N  0.18442879  0.05260508  0.47666013    -0.05400
N80         N  0.16245264  0.08357636  0.47440485    -0.57900
N81         N  0.21127049  0.46353337  0.45836572    -0.03500
N82         N  0.20850626  0.43418455  0.44401868    -0.59100
N83         N  0.18341605  0.46201890  0.47365965    -0.05400
N84         N  0.16092919  0.43146584  0.46997341    -0.58100
N85         N  0.21197081  0.05302144  0.46114630    -0.03100
N86         N  0.20972383  0.08417547  0.44826203    -0.59200
Mn87       Mn  0.25530153  0.00763055  0.45855623     1.18400
C88         C  0.17891895  0.10310946  0.45670367     0.99100
C89         C  0.17708959  0.41443151  0.45146894     0.99800
N90         N  0.32830680  0.04183268  0.53095307    -0.05400
N91         N  0.35135842  0.07145113  0.53618844    -0.61700
N92         N  0.30151438  0.44802654  0.54199922    -0.04200
N93         N  0.30475044  0.41562953  0.55374712    -0.62400
N94         N  0.32928582  0.45103716  0.52669680    -0.04900
N95         N  0.35193707  0.42041191  0.52768479    -0.62000
N96         N  0.30133263  0.03778596  0.54667901    -0.03800
N97         N  0.30546585  0.06391592  0.56290134    -0.62700
Mn98       Mn  0.32948029  0.00111329  0.50146022     1.10700
C99         C  0.33639584  0.08482492  0.55617193     1.00300
C100        C  0.33621233  0.39858886  0.54462916     1.00400
N101        N  0.18319256  0.45324296  0.52669690    -0.04900
N102        N  0.15874914  0.42362925  0.52777866    -0.60300
N103        N  0.21181293  0.04060820  0.54664885    -0.04200
N104        N  0.20913751  0.06720933  0.56271731    -0.57000
N105        N  0.18484391  0.04531364  0.53095868    -0.05500
N106        N  0.16321520  0.07554761  0.53608826    -0.59900
N107        N  0.21089321  0.44930024  0.54197950    -0.04500
N108        N  0.20586207  0.41717633  0.55382177    -0.57000
Mn109      Mn  0.18098920  0.00448303  0.50171378     1.20200
Mn110      Mn  0.25508555  0.99467613  0.54465197     1.10100
Cl111      Cl  0.25523281  0.00216059  0.50160780    -0.85000
C112        C  0.17331160  0.40139071  0.54476283     0.97300
C113        C  0.17900981  0.08886999  0.55593486     0.97100
N114        N  0.40416954  0.18807054  0.61918603    -0.35700
N115        N  0.41959857  0.24529172  0.65411118    -0.56200
N116        N  0.39078774  0.30435500  0.62316630    -0.35600
N117        N  0.37815207  0.24737560  0.58721286    -0.56200
C118        C  0.42438039  0.16688714  0.63455867     0.27900
C119        C  0.40431029  0.16843798  0.59907977     0.27900
C120        C  0.40974762  0.32672875  0.63868032     0.27900
C121        C  0.38221714  0.32718133  0.60505405     0.27900
C122        C  0.42596108  0.21354690  0.66703294     0.36500
C123        C  0.42354137  0.27621406  0.66810121     0.36600
C124        C  0.36830818  0.21549014  0.57504353     0.36500
C125        C  0.35789240  0.27693981  0.57814010     0.36600
C126        C  0.43745437  0.13343783  0.62403536    -0.20900
C127        C  0.42505336  0.13458372  0.60166451    -0.20900
C128        C  0.41300290  0.36422348  0.63026536    -0.20900
C129        C  0.39530432  0.36455249  0.60915922    -0.20900
C130        C  0.43418173  0.22437981  0.68942891    -0.22000
C131        C  0.43290857  0.26415851  0.69006261    -0.22000
C132        C  0.34230280  0.22498869  0.55784849    -0.22000
C133        C  0.33561558  0.26400169  0.55986439    -0.22000
C134        C  0.42930880  0.17567845  0.65814086    -0.17300
C135        C  0.38276220  0.17806742  0.57921060    -0.17300
C136        C  0.36090387  0.31572133  0.58550785    -0.17300
C137        C  0.42211740  0.31510141  0.66078413    -0.17300
H138        H  0.45386127  0.11023606  0.63165491     0.15600
H139        H  0.42993762  0.11245345  0.58888065     0.15600
H140        H  0.42614958  0.38905378  0.63862294     0.15600
H141        H  0.39246141  0.38946976  0.59806881     0.15600
H142        H  0.44191332  0.20577331  0.70359694     0.13900
H143        H  0.43896949  0.28214861  0.70486149     0.13900
H144        H  0.32920448  0.20580116  0.54531507     0.13900
H145        H  0.31668929  0.28090853  0.54907607     0.13900
H146        H  0.38691909  0.21164852  0.62299294     0.27100
H147        H  0.38027642  0.27646166  0.62575283     0.27100
N148        N  0.11870519  0.30522697  0.62312456    -0.35700
N149        N  0.13031293  0.24889455  0.58662302    -0.56200
N150        N  0.10931184  0.18832686  0.61927651    -0.35600
N151        N  0.09466520  0.24492576  0.65473936    -0.56200
C152        C  0.12591343  0.32863939  0.60503491     0.27900
C153        C  0.10164906  0.32700468  0.63947807     0.27900
C154        C  0.10888455  0.16846953  0.59925446     0.27900
C155        C  0.09072538  0.16619566  0.63500970     0.27900
C156        C  0.14869711  0.27958406  0.57708463     0.36500
C157        C  0.14066048  0.21757799  0.57426285     0.36600
C158        C  0.09063831  0.27553494  0.66890114     0.36500
C159        C  0.08953069  0.21281211  0.66759353     0.36600
C160        C  0.11377895  0.36580887  0.60995257    -0.20900
C161        C  0.09810770  0.36472724  0.63157347    -0.20900
C162        C  0.08972963  0.13343563  0.60225809    -0.20900
C163        C  0.07839240  0.13190623  0.62479510    -0.20900
C164        C  0.16990034  0.26792183  0.55820783    -0.22000
C165        C  0.16472059  0.22856555  0.55637697    -0.22000
C166        C  0.08259952  0.26285856  0.69093890    -0.22000
C167        C  0.08209636  0.22305539  0.69014322    -0.22000
C168        C  0.14582579  0.31807667  0.58492780    -0.17300
C169        C  0.09103493  0.31459433  0.66178339    -0.17300
C170        C  0.08664657  0.17491255  0.65862296    -0.17300
C171        C  0.12876749  0.17923631  0.57900402    -0.17300
H172        H  0.11611783  0.39112583  0.59910647     0.15600
H173        H  0.08621895  0.38924234  0.64061183     0.15600
H174        H  0.08512820  0.11091038  0.58961138     0.15600
H175        H  0.06323390  0.10791087  0.63275516     0.15600
H176        H  0.18739270  0.28584322  0.54699956     0.13900
H177        H  0.17769316  0.21011437  0.54357489     0.13900
H178        H  0.07690112  0.28044042  0.70589911     0.13900
H179        H  0.07542724  0.20396970  0.70432863     0.13900
H180        H  0.12912351  0.27738754  0.62505392     0.27100
H181        H  0.12585190  0.21288704  0.62272592     0.27100
N182        N  0.46145706  0.42971105  0.27255688    -0.05200
N183        N  0.45625208  0.40161625  0.28748886    -0.57300
N184        N  0.43167709  0.46211851  0.22325672    -0.04800
N185        N  0.40456384  0.45975513  0.20744930    -0.59400
N186        N  0.45810200  0.43550492  0.22007586    -0.04400
N187        N  0.44846871  0.41351092  0.20222863    -0.57300
N188        N  0.43673923  0.45784056  0.27605210    -0.04100
N189        N  0.41386984  0.44909964  0.29357204    -0.59800
C190        C  0.42664250  0.41391754  0.30048177     0.97000
C191        C  0.41517747  0.42957282  0.19436149     0.96800
N192        N  0.46031961  0.07392488  0.22107943    -0.05400
N193        N  0.45049840  0.09743576  0.20406940    -0.57900
N194        N  0.43851832  0.05163333  0.27652251    -0.03500
N195        N  0.41449893  0.06219334  0.29304896    -0.59100
N196        N  0.46541300  0.07843072  0.27368827    -0.05400
N197        N  0.46115174  0.10677244  0.28856135    -0.58100
N198        N  0.43278366  0.04796271  0.22430839    -0.03100
N199        N  0.40447426  0.05249940  0.20952475    -0.59200
Mn200      Mn  0.43398781  0.50556591  0.25057075     1.18400
C201        C  0.41559704  0.08329290  0.19696159     0.99100
C202        C  0.42950316  0.09639530  0.30064252     0.99800
N203        N  0.05417670  0.43585837  0.21826575    -0.05400
N204        N  0.06396439  0.41343372  0.20074631    -0.61700
N205        N  0.07545578  0.45519442  0.27463076    -0.04200
N206        N  0.09827315  0.44517397  0.29186045    -0.62400
N207        N  0.04925479  0.42802724  0.27087279    -0.04900
N208        N  0.05289887  0.39970083  0.28577134    -0.62000
N209        N  0.08233117  0.46077261  0.22263021    -0.03800
N210        N  0.11143337  0.45601166  0.20838233    -0.62700
Mn211      Mn  0.00560700  0.43111225  0.24346422     1.10700
C212        C  0.09982156  0.42654458  0.19481602     1.00300
C213        C  0.08341965  0.41064660  0.29877538     1.00400
N214        N  0.05105682  0.07896539  0.27296674    -0.04900
N215        N  0.05484696  0.10681185  0.28817987    -0.60300
N216        N  0.08225304  0.04546332  0.22426172    -0.04200
N217        N  0.11004998  0.04791302  0.20893745    -0.57000
N218        N  0.05549904  0.07153436  0.22036491    -0.05500
N219        N  0.06537219  0.09293032  0.20234018    -0.59900
N220        N  0.07637848  0.05152939  0.27670471    -0.04500
N221        N  0.09883529  0.06092366  0.29434642    -0.57000
Mn222      Mn  0.00753803  0.07693048  0.24580505     1.20200
Mn223      Mn  0.08015564  0.50382744  0.25026871     1.10100
Cl224      Cl  0.00678412  0.50462837  0.24737656    -0.85000
C225        C  0.08454182  0.09536144  0.30146166     0.97300
C226        C  0.09943472  0.07745390  0.19530951     0.97100
N227        N  0.46926228  0.17487648  0.96558987    -0.05200
N228        N  0.44067112  0.14979516  0.96174615    -0.57300
N229        N  0.05680472  0.21377072  0.95470496    -0.04800
N230        N  0.08551737  0.21187655  0.93991644    -0.59400
N231        N  0.05865699  0.18511597  0.96950627    -0.04400
N232        N  0.08900994  0.16318562  0.96504751    -0.57300
N233        N  0.46929696  0.20192886  0.94972443    -0.04100
N234        N  0.44145641  0.19582340  0.93474500    -0.59800
C235        C  0.42369414  0.16356235  0.94241150     0.97000
C236        C  0.10562839  0.18053785  0.94659719     0.96800
N237        N  0.04662397  0.33022814  0.97426801    -0.05400
N238        N  0.07542261  0.35562022  0.97299395    -0.57900
N239        N  0.46187482  0.29160952  0.94846185    -0.03500
N240        N  0.43490848  0.29367535  0.93255691    -0.59100
N241        N  0.45735563  0.31895667  0.96389953    -0.05400
N242        N  0.42679327  0.34008079  0.95889564    -0.58100
N243        N  0.04992659  0.30390543  0.95811317    -0.03100
N244        N  0.08080029  0.31069905  0.94554619    -0.59200
Mn245      Mn  0.00918129  0.25560453  0.95461758     1.18400
C246        C  0.09646439  0.34292093  0.95499965     0.99100
C247        C  0.41312921  0.32367757  0.93935425     0.99800
N248        N  0.05560180  0.18098298  0.02415493    -0.05400
N249        N  0.08606770  0.15930780  0.02897665    -0.61700
N250        N  0.46227206  0.20344924  0.03469700    -0.04200
N251        N  0.43190534  0.19694797  0.04786124    -0.62400
N252        N  0.46609750  0.17543499  0.01961283    -0.04900
N253        N  0.43851549  0.14905303  0.02235880    -0.62000
N254        N  0.05119744  0.20730737  0.04020706    -0.03800
N255        N  0.07791647  0.20430639  0.05610662    -0.62700
Mn256      Mn  0.01247825  0.17776113  0.99563541     1.10700
C257        C  0.09962946  0.17468210  0.04896054     1.00300
C258        C  0.41726404  0.16305402  0.03992602     1.00400
N259        N  0.45240183  0.32057087  0.01822080    -0.04900
N260        N  0.41969715  0.34002758  0.02081056    -0.60300
N261        N  0.04620440  0.29637292  0.04198179    -0.04200
N262        N  0.07778143  0.29920082  0.05466390    -0.57000
N263        N  0.04431870  0.32534649  0.02743512    -0.05500
N264        N  0.07453545  0.34870084  0.03005243    -0.59900
N265        N  0.45441402  0.29292416  0.03366218    -0.04500
N266        N  0.42334678  0.29242817  0.04667972    -0.57000
Mn267      Mn  0.00011959  0.32583507  0.00001960     1.20200
Mn268      Mn  0.00427743  0.24832961  0.04081372     1.10100
Cl269      Cl  0.00637364  0.25180975  0.99772240    -0.85000
C270        C  0.40197394  0.32186341  0.03869605     0.97300
C271        C  0.09512662  0.33199028  0.04706636     0.97100
N272        N  0.31129192  0.38655723  0.87733218    -0.35700
N273        N  0.25310533  0.39797219  0.84300745    -0.56200
N274        N  0.19412929  0.38290250  0.87658437    -0.35600
N275        N  0.25214716  0.37538555  0.91246650    -0.56200
C276        C  0.33205813  0.40401572  0.86055629     0.27900
C277        C  0.33115758  0.39140537  0.89709515     0.27900
C278        C  0.17298037  0.39939800  0.85974978     0.27900
C279        C  0.17293077  0.38433948  0.89596261     0.27900
C280        C  0.28446401  0.39588543  0.82936369     0.36500
C281        C  0.22203140  0.39500042  0.82910087     0.36600
C282        C  0.28364743  0.36301362  0.92390530     0.36500
C283        C  0.22128322  0.35943320  0.92314316     0.36600
C284        C  0.36504135  0.42094367  0.86993946    -0.20900
C285        C  0.36470237  0.41249572  0.89299767    -0.20900
C286        C  0.13825482  0.41229277  0.86879258    -0.20900
C287        C  0.13791486  0.40196981  0.89158414    -0.20900
C288        C  0.27330368  0.39105060  0.80668384    -0.22000
C289        C  0.23364409  0.39061248  0.80651061    -0.22000
C290        C  0.27279799  0.33988576  0.94225975    -0.22000
C291        C  0.23305845  0.33758781  0.94176019    -0.22000
C292        C  0.32254900  0.40295962  0.83694209    -0.17300
C293        C  0.32184762  0.37320125  0.91803001    -0.17300
C294        C  0.18271728  0.36569630  0.91653741    -0.17300
C295        C  0.18368226  0.40060673  0.83632401    -0.17300
H296        H  0.38729379  0.43736421  0.86115246     0.15600
H297        H  0.38681036  0.42051198  0.90533035     0.15600
H298        H  0.11518343  0.42708853  0.85996646     0.15600
H299        H  0.11453441  0.40668871  0.90354865     0.15600
H300        H  0.29172774  0.38907609  0.79175544     0.13900
H301        H  0.21546489  0.38818869  0.79143518     0.13900
H302        H  0.29150846  0.32589049  0.95455884     0.13900
H303        H  0.21494703  0.32172330  0.95368176     0.13900
H304        H  0.28765369  0.36802702  0.87502948     0.27100
H305        H  0.21921424  0.36687049  0.87445389     0.27100
N306        N  0.26095821  0.10912075  0.91791989    -0.35700
N307        N  0.20102580  0.10849182  0.88206212    -0.56200
N308        N  0.25953478  0.09416427  0.84789849    -0.35600
N309        N  0.31954635  0.09993652  0.88191681    -0.56200
C310        C  0.23080469  0.12517497  0.92919088     0.27900
C311        C  0.29375788  0.11955006  0.92921636     0.27900
C312        C  0.22827726  0.10113228  0.83465942     0.27900
C313        C  0.29104241  0.09872624  0.83442748     0.27900
C314        C  0.17924250  0.10740498  0.90126763     0.36500
C315        C  0.17812216  0.09581863  0.86468955     0.36600
C316        C  0.34085203  0.09406342  0.90098685     0.36500
C317        C  0.34061693  0.08667241  0.86409287     0.36600
C318        C  0.24453204  0.14510931  0.94822698    -0.20900
C319        C  0.28423016  0.14160451  0.94823342    -0.20900
C320        C  0.23998441  0.11056661  0.81261792    -0.20900
C321        C  0.27965795  0.10916554  0.81248349    -0.20900
C322        C  0.14234187  0.09398705  0.89614590    -0.22000
C323        C  0.14178781  0.08603494  0.87303528    -0.22000
C324        C  0.37556349  0.07675326  0.89530933    -0.22000
C325        C  0.37527636  0.07171895  0.87193874    -0.22000
C326        C  0.19127531  0.12177504  0.92287989    -0.17300
C327        C  0.33193355  0.10965271  0.92274388    -0.17300
C328        C  0.32932680  0.09003892  0.84085315    -0.17300
C329        C  0.18954212  0.09522489  0.84135206    -0.17300
H330        H  0.22777053  0.16100985  0.96066608     0.15600
H331        H  0.30381905  0.15436380  0.96067224     0.15600
H332        H  0.22175208  0.11704796  0.79803313     0.15600
H333        H  0.29797853  0.11435310  0.79775145     0.15600
H334        H  0.11837022  0.09027483  0.90787790     0.13900
H335        H  0.11725716  0.07462739  0.86360169     0.13900
H336        H  0.39896351  0.06930933  0.90680117     0.13900
H337        H  0.39816359  0.05883642  0.86198106     0.13900
H338        H  0.25910047  0.09011608  0.90410480     0.27100
H339        H  0.25895871  0.08155841  0.86409072     0.27100
N340        N  0.07627820  0.45250209  0.72123122    -0.05200
N341        N  0.09875790  0.42195001  0.71880691    -0.57300
N342        N  0.05246782  0.03888148  0.70691516    -0.04800
N343        N  0.05414696  0.06822281  0.69260692    -0.59400
N344        N  0.08034480  0.04127841  0.72223887    -0.04400
N345        N  0.10186340  0.07259972  0.71847931    -0.57300
N346        N  0.04805434  0.45137274  0.70612022    -0.04100
N347        N  0.05032670  0.42008444  0.69330430    -0.59800
C348        C  0.08192380  0.40189729  0.70140235     0.97000
C349        C  0.08489990  0.08908846  0.69993063     0.96800
N350        N  0.43746236  0.04223481  0.72223212    -0.05400
N351        N  0.41691785  0.07400109  0.71898006    -0.57900
N352        N  0.46458758  0.45117874  0.70676612    -0.03500
N353        N  0.46268258  0.42003659  0.69381193    -0.59100
N354        N  0.43647860  0.45121585  0.72189822    -0.05400
N355        N  0.41453060  0.41983902  0.71939273    -0.58100
N356        N  0.46491986  0.04011289  0.70673339    -0.03100
N357        N  0.46393656  0.07006355  0.69282421    -0.59200
Mn358      Mn  0.00341316  0.49568538  0.70481038     1.18400
C359        C  0.43401442  0.09106575  0.70057321     0.99100
C360        C  0.43148748  0.40065746  0.70183205     0.99800
N361        N  0.08300781  0.04397467  0.77701629    -0.05400
N362        N  0.11181481  0.06739329  0.78289019    -0.61700
N363        N  0.05145732  0.45835590  0.79115273    -0.04200
N364        N  0.05919408  0.43306566  0.80742591    -0.62400
N365        N  0.07815052  0.45745583  0.77514145    -0.04900
N366        N  0.10471163  0.43181147  0.78035557    -0.62000
N367        N  0.05534375  0.04567195  0.79245227    -0.03800
N368        N  0.06452770  0.07069275  0.80871938    -0.62700
Mn369      Mn  0.07882990  0.49957904  0.74698141     1.10700
C370        C  0.09974735  0.08428618  0.80261080     1.00300
C371        C  0.09243480  0.41653143  0.80047705     1.00400
N372        N  0.43383001  0.45496859  0.77606715    -0.04900
N373        N  0.40507436  0.43173086  0.78198370    -0.60300
N374        N  0.46345211  0.04283916  0.79259648    -0.04200
N375        N  0.45479961  0.06692049  0.80934376    -0.57000
N376        N  0.43593396  0.04252368  0.77695625    -0.05500
N377        N  0.40787064  0.06597738  0.78308528    -0.59900
N378        N  0.46075443  0.45517477  0.79205843    -0.04500
N379        N  0.45086686  0.43176769  0.80898926    -0.57000
Mn380      Mn  0.43421197  0.49766728  0.74812159     1.20200
Mn381      Mn  0.00636365  0.50263796  0.79125427     1.10100
Cl382      Cl  0.00475867  0.49912909  0.74805043    -0.85000
C383        C  0.41616993  0.41710538  0.80247357     0.97300
C384        C  0.42008130  0.08132029  0.80327425     0.97100
N385        N  0.25779676  0.09565729  0.14879781    -0.35700
N386        N  0.31784623  0.11840180  0.11679102    -0.56200
N387        N  0.25907834  0.12699326  0.08104086    -0.35600
N388        N  0.19852384  0.10876735  0.11460925    -0.56200
C389        C  0.28881058  0.09903432  0.16293305     0.27900
C390        C  0.22568614  0.09575136  0.16211815     0.27900
C391        C  0.28964422  0.14557845  0.07135475     0.27900
C392        C  0.22696714  0.13779287  0.06947513     0.27900
C393        C  0.34048062  0.10359161  0.13349494     0.36500
C394        C  0.34053551  0.12268561  0.09811532     0.36600
C395        C  0.17621806  0.09264958  0.13117534     0.36500
C396        C  0.17757352  0.10741673  0.09503075     0.36600
C397        C  0.27625279  0.10140505  0.18545633    -0.20900
C398        C  0.23651091  0.09942803  0.18494340    -0.20900
C399        C  0.27684872  0.16788532  0.05314451    -0.20900
C400        C  0.23731786  0.16291363  0.05192366    -0.20900
C401        C  0.37762394  0.09807224  0.12528303    -0.22000
C402        C  0.37783133  0.11087053  0.10301790    -0.22000
C403        C  0.14095091  0.08094800  0.12208185    -0.22000
C404        C  0.14176425  0.09040441  0.09920250    -0.22000
C405        C  0.32816560  0.09694042  0.15627340    -0.17300
C406        C  0.18712666  0.08952443  0.15448843    -0.17300
C407        C  0.18872900  0.12499715  0.07407128    -0.17300
C408        C  0.32891755  0.14104187  0.07766440    -0.17300
H409        H  0.29394732  0.10389586  0.20072967     0.15600
H410        H  0.21772915  0.10005066  0.19976499     0.15600
H411        H  0.29420827  0.18559824  0.04174954     0.15600
H412        H  0.21837403  0.17642697  0.03955599     0.15600
H413        H  0.40225146  0.08637900  0.13427365     0.13900
H414        H  0.40269510  0.11133684  0.09179694     0.13900
H415        H  0.11709342  0.06708131  0.13092569     0.13900
H416        H  0.11847256  0.08568467  0.08705986     0.13900
H417        H  0.25880570  0.08848245  0.13151038     0.27100
H418        H  0.26032871  0.10556201  0.09350943     0.27100
N419        N  0.25574525  0.36356722  0.08351876    -0.35700
N420        N  0.19924307  0.37560056  0.12042265    -0.56200
N421        N  0.26099347  0.40494682  0.14957012    -0.35600
N422        N  0.31675759  0.39664384  0.11216005    -0.56200
C423        C  0.22245777  0.35417463  0.07247038     0.27900
C424        C  0.28409852  0.36685903  0.06759806     0.27900
C425        C  0.22915807  0.41649306  0.16131227     0.27900
C426        C  0.29172852  0.42557071  0.15762498     0.27900
C427        C  0.17937248  0.35080372  0.10677446     0.36500
C428        C  0.18100624  0.37551906  0.14094599     0.36600
C429        C  0.33839119  0.38683053  0.09374539     0.36500
C430        C  0.34179390  0.40602898  0.12923019     0.36600
C431        C  0.22976096  0.35114733  0.04915717    -0.20900
C432        C  0.26861736  0.35914831  0.04609007    -0.20900
C433        C  0.23997484  0.44500846  0.17689035    -0.20900
C434        C  0.27926935  0.45035285  0.17478523    -0.20900
C435        C  0.14841433  0.33488020  0.11869506    -0.22000
C436        C  0.14988627  0.34998308  0.14043648    -0.22000
C437        C  0.37734242  0.39088906  0.09903177    -0.22000
C438        C  0.37949487  0.40315589  0.12137897    -0.22000
C439        C  0.18677955  0.34475710  0.08321382    -0.17300
C440        C  0.32387048  0.37457044  0.07209713    -0.17300
C441        C  0.33098230  0.42076378  0.15097623    -0.17300
C442        C  0.19130024  0.39997169  0.15949963    -0.17300
H443        H  0.20947539  0.34308724  0.03578650     0.15600
H444        H  0.28384457  0.35872833  0.02989379     0.15600
H445        H  0.22171123  0.46040461  0.18877561     0.15600
H446        H  0.29641042  0.47045150  0.18486083     0.15600
H447        H  0.12704425  0.31433342  0.11245024     0.13900
H448        H  0.13041046  0.34252168  0.15426623     0.13900
H449        H  0.40181125  0.38569870  0.08793594     0.13900
H450        H  0.40597174  0.41003626  0.13045739     0.13900
H451        H  0.25956458  0.36346144  0.10113793     0.27100
H452        H  0.26263370  0.38117777  0.13869310     0.27100
C453        C  0.12657561  0.09985791  0.82011253    -0.15500
C454        C  0.16190414  0.08470875  0.82266398    -0.30700
H455        H  0.11583830  0.12070843  0.83242940     0.13500
H456        H  0.17188852  0.06383623  0.81008610     0.14100
C457        C  0.39315525  0.09528765  0.82092603    -0.15500
C458        C  0.35682820  0.08131189  0.82196266    -0.30700
H459        H  0.40439227  0.11366279  0.83455204     0.13500
H460        H  0.34619253  0.06281726  0.80819360     0.14100
C461        C  0.15562337  0.41260932  0.81846838    -0.15500
C462        C  0.11913515  0.39931838  0.81708795    -0.30700
H463        H  0.16585805  0.43339934  0.80581244     0.13500
H464        H  0.10792514  0.37886777  0.82959789     0.14100
C465        C  0.35156904  0.41403254  0.81926679    -0.15500
C466        C  0.38839037  0.40203578  0.81941638    -0.30700
H467        H  0.34187280  0.43264102  0.80541757     0.13500
H468        H  0.39895417  0.38376978  0.83316493     0.14100
C469        C  0.12977328  0.15892946  0.06394124    -0.15500
C470        C  0.15788273  0.13512277  0.05728975    -0.30700
H471        H  0.13004339  0.16958076  0.08150198     0.13500
H472        H  0.16051271  0.12664457  0.03942726     0.14100
C473        C  0.38382918  0.14267109  0.05023376    -0.15500
C474        C  0.35926690  0.16132674  0.06411167    -0.30700
H475        H  0.37996476  0.11190747  0.04703356     0.13500
H476        H  0.36233778  0.19235555  0.06663616     0.14100
C477        C  0.15511646  0.32660681  0.06959129    -0.15500
C478        C  0.13171148  0.34793356  0.05634873    -0.30700
H479        H  0.14775167  0.29657455  0.07316000     0.13500
H480        H  0.13882665  0.37809542  0.05302543     0.14100
C481        C  0.35295043  0.36768227  0.05359052    -0.15500
C482        C  0.36428322  0.33141632  0.04917198    -0.30700
H483        H  0.37050224  0.39188633  0.04762861     0.13500
H484        H  0.34889306  0.30774510  0.05751709     0.14100
C485        C  0.13113440  0.36251840  0.94586283    -0.15500
C486        C  0.15118343  0.34589075  0.92893300    -0.30700
H487        H  0.13941175  0.39091901  0.95229159     0.13500
H488        H  0.14274863  0.31751519  0.92251653     0.14100
C489        C  0.38175471  0.33882919  0.92519251    -0.15500
C490        C  0.35388034  0.36160230  0.93339942    -0.30700
H491        H  0.38049706  0.32931351  0.90742476     0.13500
H492        H  0.35274054  0.36867465  0.95154001     0.14100
C493        C  0.13657771  0.16409447  0.93220931    -0.15500
C494        C  0.16106760  0.13631509  0.93899423    -0.30700
H495        H  0.13975656  0.17608681  0.91507833     0.13500
H496        H  0.16045345  0.12587846  0.95655492     0.14100
C497        C  0.39226222  0.14528032  0.92921733    -0.15500
C498        C  0.36484260  0.12174236  0.93785254    -0.30700
H499        H  0.38983372  0.15446664  0.91144363     0.13500
H500        H  0.36433904  0.11510507  0.95605328     0.14100
C501        C  0.39028011  0.41409147  0.17568799    -0.15500
C502        C  0.36152016  0.43588511  0.16692828    -0.30700
H503        H  0.39425556  0.38452465  0.16991480     0.13500
H504        H  0.35838442  0.46535028  0.17306873     0.14100
C505        C  0.12390845  0.41155467  0.17583062    -0.15500
C506        C  0.16276497  0.40881392  0.17831181    -0.30700
H507        H  0.10978910  0.40541367  0.15961484     0.13500
H508        H  0.17462486  0.41553018  0.19512532     0.14100
C509        C  0.39076173  0.10002019  0.17881545    -0.15500
C510        C  0.35609295  0.08344756  0.17402896    -0.30700
H511        H  0.40056448  0.12554781  0.16958949     0.13500
H512        H  0.34632150  0.05902747  0.18430519     0.14100
C513        C  0.15863059  0.07559607  0.17195713    -0.15500
C514        C  0.12403327  0.09202736  0.17622657    -0.30700
H515        H  0.16833293  0.05220208  0.18293987     0.13500
H516        H  0.11444867  0.11654880  0.16614972     0.14100
C517        C  0.09709314  0.12575625  0.68901319    -0.15500
C518        C  0.07356236  0.14300333  0.67378742    -0.30700
H519        H  0.12567962  0.13764298  0.69255940     0.13500
H520        H  0.04511027  0.13070697  0.67029828     0.14100
C521        C  0.07503949  0.34419651  0.67742667    -0.15500
C522        C  0.09762879  0.36653862  0.69087148    -0.30700
H523        H  0.04452110  0.35073285  0.67549561     0.13500
H524        H  0.12808555  0.35998880  0.69301670     0.14100
C525        C  0.44353075  0.14418069  0.67322168    -0.15500
C526        C  0.42153623  0.12749694  0.68958933    -0.30700
H527        H  0.47124161  0.13161709  0.66884189     0.13500
H528        H  0.39362222  0.13954861  0.69399637     0.14100
C529        C  0.43840143  0.34557431  0.67593012    -0.15500
C530        C  0.41681476  0.36446987  0.69138950    -0.30700
H531        H  0.46742033  0.35585901  0.67193355     0.13500
H532        H  0.38766808  0.35452009  0.69528075     0.14100
C533        C  0.35259344  0.11557410  0.57074475    -0.15500
C534        C  0.37220532  0.14643500  0.56291174    -0.30700
H535        H  0.34502016  0.11436586  0.58882366     0.13500
H536        H  0.37679438  0.15026507  0.54462593     0.14100
C537        C  0.33976080  0.34630084  0.57299784    -0.15500
C538        C  0.35412819  0.36339771  0.55412630    -0.30700
H539        H  0.31417722  0.35784426  0.58122979     0.13500
H540        H  0.38066498  0.35283827  0.54651091     0.14100
C541        C  0.16368571  0.11996001  0.57040800    -0.15500
C542        C  0.14035904  0.14801599  0.56288019    -0.30700
H543        H  0.17360151  0.12075517  0.58811239     0.13500
H544        H  0.13252037  0.14981514  0.54486681     0.14100
C545        C  0.16741001  0.34914056  0.57287961    -0.15500
C546        C  0.15354748  0.36690363  0.55419100    -0.30700
H547        H  0.19366261  0.35980023  0.58108599     0.13500
H548        H  0.12649921  0.35715674  0.54652212     0.14100
C549        C  0.08355000  0.15310142  0.32561619    -0.15500
C550        C  0.10151245  0.12022537  0.31955120    -0.30700
H551        H  0.05625803  0.16036561  0.31746448     0.13500
H552        H  0.12920124  0.11271475  0.32706562     0.14100
C553        C  0.10083579  0.38550648  0.31636310    -0.15500
C554        C  0.08334065  0.35207515  0.32243382    -0.30700
H555        H  0.12843140  0.39385103  0.32389898     0.13500
H556        H  0.05629665  0.34375556  0.31417358     0.14100
C557        C  0.18308597  0.15701041  0.42958506    -0.15500
C558        C  0.16276540  0.13789457  0.44573335    -0.30700
H559        H  0.21278088  0.14900589  0.42598463     0.13500
H560        H  0.13346792  0.14656180  0.44984296     0.14100
C561        C  0.16274072  0.37848052  0.44083953    -0.15500
C562        C  0.18456145  0.35903984  0.42578522    -0.30700
H563        H  0.13340078  0.36879674  0.44448862     0.13500
H564        H  0.21434052  0.36781367  0.42262287     0.14100
C565        C  0.42991095  0.15294065  0.32645192    -0.15500
C566        C  0.41036932  0.12281174  0.31703214    -0.30700
H567        H  0.46018223  0.15694627  0.32204879     0.13500
H568        H  0.37998366  0.11810984  0.32090798     0.14100
C569        C  0.40974168  0.39018299  0.31901888    -0.15500
C570        C  0.40521724  0.35163379  0.31604259    -0.30700
H571        H  0.40380192  0.40406117  0.33528374     0.13500
H572        H  0.41192031  0.33999752  0.29921204     0.14100
C573        C  0.33453765  0.15799318  0.43285655    -0.15500
C574        C  0.35596873  0.13428808  0.44591144    -0.30700
H575        H  0.30334245  0.15398343  0.43208133     0.13500
H576        H  0.38700275  0.13879777  0.44740354     0.14100
C577        C  0.34496695  0.37588880  0.44017380    -0.15500
C578        C  0.32277994  0.35845019  0.42417949    -0.30700
H579        H  0.37301600  0.36409068  0.44460708     0.13500
H580        H  0.29501837  0.37072692  0.41956761     0.14100
N581        N  0.34778179  0.75537273  0.40783057    -0.35700
N582        N  0.37983305  0.69445660  0.37930001    -0.56200
N583        N  0.39643814  0.75161024  0.34383710    -0.35600
N584        N  0.36708164  0.81296120  0.37290418    -0.56200
C585        C  0.34595229  0.72555910  0.42279571     0.27900
C586        C  0.34104162  0.78828101  0.41970166     0.27900
C587        C  0.41790807  0.72127858  0.33661065     0.27900
C588        C  0.40993142  0.78381578  0.33303651     0.27900
C589        C  0.36432011  0.67220988  0.39608142     0.36500
C590        C  0.39168321  0.67008153  0.36260102     0.36600
C591        C  0.34350853  0.83365888  0.38656167     0.36500
C592        C  0.36898155  0.83195758  0.35267600     0.36600
C593        C  0.33754114  0.73957208  0.44448490    -0.20900
C594        C  0.33467972  0.77919580  0.44257222    -0.20900
C595        C  0.44517797  0.73448517  0.32092428    -0.20900
C596        C  0.44035828  0.77375405  0.31882704    -0.20900
C597        C  0.36696291  0.63348663  0.39020374    -0.22000
C598        C  0.38478417  0.63208496  0.36925869    -0.22000
C599        C  0.33034072  0.86598011  0.37495731    -0.22000
C600        C  0.34579031  0.86442912  0.35333474    -0.22000
C601        C  0.34931403  0.68594720  0.41712722    -0.17300
C602        C  0.33623252  0.82540553  0.40987553    -0.17300
C603        C  0.39392897  0.82151229  0.33456107    -0.17300
C604        C  0.41173066  0.68173766  0.34251638    -0.17300
H605        H  0.33341009  0.72292750  0.46002061     0.15600
H606        H  0.32733987  0.79880541  0.45632800     0.15600
H607        H  0.46644615  0.71782521  0.31173169     0.15600
H608        H  0.45741633  0.79259885  0.30792473     0.15600
H609        H  0.35792455  0.60864325  0.40020518     0.13900
H610        H  0.39251400  0.60574355  0.36049487     0.13900
H611        H  0.31136600  0.88827579  0.38129002     0.13900
H612        H  0.34038547  0.88497818  0.33975231     0.13900
H613        H  0.34882573  0.75289235  0.39013767     0.27100
H614        H  0.37115339  0.74971491  0.35341395     0.27100
N615        N  0.13701562  0.69400995  0.37769077    -0.35700
N616        N  0.15854831  0.75465877  0.40991410    -0.56200
N617        N  0.13801610  0.81348126  0.37650573    -0.35600
N618        N  0.11760735  0.75322335  0.34432245    -0.56200
C619        C  0.15985956  0.67485040  0.39264238     0.27900
C620        C  0.13676317  0.67372405  0.35775976     0.27900
C621        C  0.16210547  0.83311393  0.39068329     0.27900
C622        C  0.13733599  0.83289452  0.35634340     0.27900
C623        C  0.16322817  0.72376394  0.42380297     0.36500
C624        C  0.16430895  0.78654101  0.42295888     0.36600
C625        C  0.10076697  0.72138822  0.33497807     0.36500
C626        C  0.10038297  0.78422386  0.33460460     0.36600
C627        C  0.17432205  0.64204161  0.38208000    -0.20900
C628        C  0.16040578  0.64178327  0.35996354    -0.20900
C629        C  0.17722367  0.86513993  0.37935354    -0.20900
C630        C  0.16209221  0.86460360  0.35753600    -0.20900
C631        C  0.17158501  0.73609710  0.44592134    -0.22000
C632        C  0.17221606  0.77593306  0.44538612    -0.22000
C633        C  0.07215532  0.73225646  0.31962660    -0.22000
C634        C  0.07187256  0.77198587  0.31941366    -0.22000
C635        C  0.16661903  0.68535024  0.41580460    -0.17300
C636        C  0.11411633  0.68313549  0.33828995    -0.17300
C637        C  0.11321170  0.82296086  0.33761299    -0.17300
C638        C  0.16866030  0.82425060  0.41397664    -0.17300
H639        H  0.19348813  0.62072023  0.38935349     0.15600
H640        H  0.16774630  0.62075503  0.34699545     0.15600
H641        H  0.19734913  0.88655680  0.38600624     0.15600
H642        H  0.16907446  0.88504537  0.34410185     0.15600
H643        H  0.17873404  0.71835669  0.46058601     0.13900
H644        H  0.17990152  0.79478763  0.45953893     0.13900
H645        H  0.05355962  0.71360164  0.30945150     0.13900
H646        H  0.05300032  0.78965616  0.30904818     0.13900
H647        H  0.11953242  0.71752300  0.38157993     0.27100
H648        H  0.11976253  0.79060199  0.38113261     0.27100
N649        N  0.32678713  0.95987566  0.47258134    -0.05200
N650        N  0.34766841  0.92856588  0.46900991    -0.57300
N651        N  0.30233133  0.55149354  0.46273060    -0.04800
N652        N  0.30528334  0.58307563  0.45026734    -0.59400
N653        N  0.33027127  0.54994448  0.47801608    -0.04400
N654        N  0.35339945  0.58057949  0.47590592    -0.57300
N655        N  0.29899667  0.96219225  0.45724418    -0.04100
N656        N  0.30025887  0.93266232  0.44296606    -0.59800
C657        C  0.33067145  0.91192440  0.45048875     0.97000
C658        C  0.33705539  0.60110963  0.45861002     0.96800
N659        N  0.18610961  0.55180096  0.47822386    -0.05400
N660        N  0.16415730  0.58286909  0.47621983    -0.57900
N661        N  0.20916565  0.96349791  0.45783234    -0.03500
N662        N  0.20705770  0.93280335  0.44444652    -0.59100
N663        N  0.18136194  0.96258412  0.47319568    -0.05400
N664        N  0.15962013  0.93119223  0.47048014    -0.58100
N665        N  0.21361011  0.55254485  0.46270022    -0.03100
N666        N  0.21138041  0.58395471  0.45005989    -0.59200
Mn667      Mn  0.25709836  0.50747014  0.45980631     1.18400
C668        C  0.18060792  0.60276098  0.45862823     0.99100
C669        C  0.17608564  0.91295335  0.45249087     0.99800
N670        N  0.32965964  0.54117218  0.53227056    -0.05400
N671        N  0.35123361  0.57208223  0.53704437    -0.61700
N672        N  0.29871918  0.94943454  0.54105069    -0.04200
N673        N  0.30167501  0.91710245  0.55289410    -0.62400
N674        N  0.32634270  0.95186927  0.52562598    -0.04900
N675        N  0.34853694  0.92094916  0.52657209    -0.62000
N676        N  0.30281070  0.53651703  0.54802604    -0.03800
N677        N  0.30561712  0.56356469  0.56382350    -0.62700
Mn678      Mn  0.33155383  0.50078740  0.50264847     1.10700
C679        C  0.33557872  0.58561050  0.55678706     1.00300
C680        C  0.33279713  0.89956005  0.54366676     1.00400
N681        N  0.18052584  0.95582594  0.52623956    -0.04900
N682        N  0.15576332  0.92654113  0.52776969    -0.60300
N683        N  0.21341901  0.53786587  0.54813184    -0.04200
N684        N  0.21091034  0.56452640  0.56419154    -0.57000
N685        N  0.18666146  0.54288031  0.53235849    -0.05500
N686        N  0.16544876  0.57346076  0.53736805    -0.59900
N687        N  0.20827437  0.95214794  0.54149682    -0.04500
N688        N  0.20305585  0.92054351  0.55375642    -0.57000
Mn689      Mn  0.18304072  0.50282561  0.50275639     1.20200
Mn690      Mn  0.25720781  0.49252004  0.54575702     1.10100
Cl691      Cl  0.25725571  0.50097418  0.50276648    -0.85000
C692        C  0.17034656  0.90476116  0.54495220     0.97300
C693        C  0.18116512  0.58660311  0.55727227     0.97100
N694        N  0.40152876  0.68983243  0.61849712    -0.35700
N695        N  0.41467483  0.74606659  0.65426924    -0.56200
N696        N  0.38726323  0.80605001  0.62341086    -0.35600
N697        N  0.37686387  0.74997400  0.58652987    -0.56200
C698        C  0.42133059  0.66823890  0.63385880     0.27900
C699        C  0.40204235  0.67061322  0.59827674     0.27900
C700        C  0.40453367  0.82821229  0.63970989     0.27900
C701        C  0.37885042  0.82949910  0.60556102     0.27900
C702        C  0.42141507  0.71398029  0.66684153     0.36500
C703        C  0.41797742  0.77660891  0.66861746     0.36600
C704        C  0.36751117  0.71837868  0.57393157     0.36500
C705        C  0.35743959  0.77991018  0.57721384     0.36600
C706        C  0.43447995  0.63493607  0.62320107    -0.20900
C707        C  0.42256252  0.63659424  0.60077153    -0.20900
C708        C  0.40686079  0.86622847  0.63205288    -0.20900
C709        C  0.39028356  0.86708215  0.61063440    -0.20900
C710        C  0.42894764  0.72419615  0.68941622    -0.22000
C711        C  0.42697387  0.76391800  0.69050615    -0.22000
C712        C  0.34292906  0.72849291  0.55614803    -0.22000
C713        C  0.33648437  0.76752769  0.55826135    -0.22000
C714        C  0.42590539  0.67650042  0.65752284    -0.17300
C715        C  0.38079603  0.68057253  0.57837254    -0.17300
C716        C  0.35918703  0.81839713  0.58532911    -0.17300
C717        C  0.41654717  0.81578858  0.66175339    -0.17300
H718        H  0.45054643  0.61145626  0.63078128     0.15600
H719        H  0.42757152  0.61467115  0.58787781     0.15600
H720        H  0.41863966  0.89103661  0.64110821     0.15600
H721        H  0.38710726  0.89248185  0.59996518     0.15600
H722        H  0.43678152  0.70526061  0.70340924     0.13900
H723        H  0.43248566  0.78149868  0.70554771     0.13900
H724        H  0.33047719  0.70967298  0.54320085     0.13900
H725        H  0.31829394  0.78473459  0.54719872     0.13900
H726        H  0.38418283  0.71332705  0.62229664     0.27100
H727        H  0.37781383  0.77764747  0.62520973     0.27100
N728        N  0.12103261  0.80673713  0.62219346    -0.35700
N729        N  0.13364518  0.74930393  0.58597519    -0.56200
N730        N  0.11097778  0.68998650  0.61843583    -0.35600
N731        N  0.09627193  0.74748502  0.65377531    -0.56200
C732        C  0.12771317  0.82970713  0.60385356     0.27900
C733        C  0.10471963  0.82893304  0.63864197     0.27900
C734        C  0.11181039  0.66956464  0.59862870     0.27900
C735        C  0.09034372  0.66884923  0.63371982     0.27900
C736        C  0.15158309  0.78012901  0.57634863     0.36500
C737        C  0.14490191  0.71791243  0.57395048     0.36600
C738        C  0.09437278  0.77794179  0.66823056     0.36500
C739        C  0.09029373  0.71536129  0.66645567     0.36600
C740        C  0.11592156  0.86706326  0.60872132    -0.20900
C741        C  0.10110366  0.86651592  0.63056276    -0.20900
C742        C  0.09145224  0.63513850  0.60130391    -0.20900
C743        C  0.07790747  0.63464408  0.62341314    -0.20900
C744        C  0.17339171  0.76845171  0.55769610    -0.22000
C745        C  0.16915162  0.72893683  0.55617519    -0.22000
C746        C  0.08702844  0.76515608  0.69032292    -0.22000
C747        C  0.08459800  0.72541718  0.68922271    -0.22000
C748        C  0.14754619  0.81876989  0.58374646    -0.17300
C749        C  0.09516414  0.81702099  0.66120926    -0.17300
C750        C  0.08513445  0.67788797  0.65719641    -0.17300
C751        C  0.13327556  0.67955220  0.57883964    -0.17300
H752        H  0.11820998  0.89227696  0.59779608     0.15600
H753        H  0.08991678  0.89130917  0.63965768     0.15600
H754        H  0.08733455  0.61241993  0.58872282     0.15600
H755        H  0.06143647  0.61126124  0.63110261     0.15600
H756        H  0.19065510  0.78648677  0.54642468     0.13900
H757        H  0.18269963  0.71046172  0.54359988     0.13900
H758        H  0.08282750  0.78264523  0.70549999     0.13900
H759        H  0.07786131  0.70632226  0.70339013     0.13900
H760        H  0.13159656  0.77889473  0.62420508     0.27100
H761        H  0.12798380  0.71423002  0.62221700     0.27100
N762        N  0.46181060  0.92786742  0.27273866    -0.05200
N763        N  0.45662800  0.89970031  0.28763900    -0.57300
N764        N  0.43138469  0.96011070  0.22365937    -0.04800
N765        N  0.40390410  0.95726980  0.20809274    -0.59400
N766        N  0.45807528  0.93383348  0.22023528    -0.04400
N767        N  0.44848899  0.91186558  0.20237776    -0.57300
N768        N  0.43735330  0.95615634  0.27644166    -0.04100
N769        N  0.41474616  0.94747965  0.29408842    -0.59800
C770        C  0.42735163  0.91215932  0.30084449     0.97000
C771        C  0.41467295  0.92724318  0.19487096     0.96800
N772        N  0.46095034  0.57539062  0.22063277    -0.05400
N773        N  0.45232672  0.59735179  0.20267382    -0.57900
N774        N  0.43813611  0.55294746  0.27624282    -0.03500
N775        N  0.41470508  0.56245196  0.29326600    -0.59100
N776        N  0.46478934  0.57999476  0.27354760    -0.05400
N777        N  0.46103579  0.60744776  0.28902871    -0.58100
N778        N  0.43349629  0.54933550  0.22378763    -0.03100
N779        N  0.40650921  0.55220038  0.20804569    -0.59200
Mn780      Mn  0.43407640  0.00385196  0.25095399     1.18400
C781        C  0.41827221  0.58205508  0.19493719     0.99100
C782        C  0.42985571  0.59628392  0.30128505     0.99800
N783        N  0.05349168  0.93144598  0.22309609    -0.05400
N784        N  0.06352582  0.90750293  0.20636824    -0.61700
N785        N  0.07427592  0.95689801  0.27861265    -0.04200
N786        N  0.09657694  0.94876356  0.29648016    -0.62400
N787        N  0.04854646  0.92902806  0.27549218    -0.04900
N788        N  0.05246653  0.90179362  0.29106434    -0.62000
N789        N  0.08080456  0.95771724  0.22618504    -0.03800
N790        N  0.10911590  0.95305589  0.21152338    -0.62700
Mn791      Mn  0.00503955  0.92945017  0.24806251     1.10700
C792        C  0.09824401  0.92186321  0.19923293     1.00300
C793        C  0.08230723  0.91432084  0.30407155     1.00400
N794        N  0.05192080  0.57837012  0.27366024    -0.04900
N795        N  0.05668026  0.60560730  0.28921050    -0.60300
N796        N  0.08250710  0.54922819  0.22436435    -0.04200
N797        N  0.11131571  0.55447631  0.21005281    -0.57000
N798        N  0.05586755  0.57577148  0.22145500    -0.05500
N799        N  0.06689740  0.60043014  0.20525908    -0.59900
N800        N  0.07665693  0.55012119  0.27682675    -0.04500
N801        N  0.09909501  0.55799906  0.29477530    -0.57000
Mn802      Mn  0.00791728  0.57847311  0.24662194     1.20200
Mn803      Mn  0.07941285  0.00296240  0.25211999     1.10100
Cl804      Cl  0.00617793  0.00339366  0.24910381    -0.85000
C805        C  0.08600830  0.59275521  0.30228424     0.97300
C806        C  0.10145469  0.58629926  0.19822022     0.97100
N807        N  0.46943904  0.67958206  0.96519796    -0.05200
N808        N  0.44022348  0.65634346  0.95926491    -0.57300
N809        N  0.05607210  0.70642764  0.95488915    -0.04800
N810        N  0.08768393  0.70502373  0.94223886    -0.59400
N811        N  0.05528427  0.67746159  0.96946665    -0.04400
N812        N  0.08618884  0.65576612  0.96714740    -0.57300
N813        N  0.47156471  0.70891231  0.95085583    -0.04100
N814        N  0.44466949  0.70623078  0.93494879    -0.59800
C815        C  0.42508372  0.67373129  0.94036631     0.97000
C816        C  0.10623696  0.67340524  0.95026069     0.96800
N817        N  0.04459495  0.82346435  0.97409119    -0.05400
N818        N  0.07318547  0.84911846  0.97338799    -0.57900
N819        N  0.46485636  0.79758807  0.95490703    -0.03500
N820        N  0.43935662  0.80168539  0.93838082    -0.59100
N821        N  0.45845751  0.82220388  0.97167341    -0.05400
N822        N  0.42796118  0.84371285  0.96675802    -0.58100
N823        N  0.04914112  0.79706288  0.95807904    -0.03100
N824        N  0.08077849  0.80410980  0.94618687    -0.59200
Mn825      Mn  0.00853975  0.74853608  0.95391564     1.18400
C826        C  0.09552236  0.83653042  0.95595514     0.99100
C827        C  0.41643118  0.83014740  0.94592911     0.99800
N828        N  0.05311705  0.67399826  0.02216704    -0.05400
N829        N  0.08603765  0.65499960  0.02378401    -0.61700
N830        N  0.46256540  0.69750118  0.03627549    -0.04200
N831        N  0.43189881  0.69137335  0.04904720    -0.62400
N832        N  0.46456153  0.67180916  0.01968566    -0.04900
N833        N  0.43500794  0.64716052  0.02106911    -0.62000
N834        N  0.05100302  0.70030594  0.03839406    -0.03800
N835        N  0.08219320  0.69977047  0.05139933    -0.62700
Mn836      Mn  0.00916944  0.67096899  0.99471577     1.10700
C837        C  0.10380088  0.67147158  0.04208800     1.00300
C838        C  0.41483355  0.66013378  0.03944679     1.00400
N839        N  0.45319349  0.81489155  0.02657975    -0.04900
N840        N  0.42203181  0.83529488  0.03167058    -0.60300
N841        N  0.04416323  0.79005583  0.04137137    -0.04200
N842        N  0.07517155  0.79451576  0.05440997    -0.57000
N843        N  0.04120201  0.81903211  0.02690293    -0.05500
N844        N  0.07007110  0.84386815  0.02978914    -0.59900
N845        N  0.45624223  0.78557833  0.04078755    -0.04500
N846        N  0.42767443  0.78507441  0.05558740    -0.57000
Mn847      Mn  0.99753855  0.81858772  0.99945333     1.20200
Mn848      Mn  0.00309961  0.74103263  0.04017794     1.10100
Cl849      Cl  0.00432055  0.74481294  0.99702340    -0.85000
C850        C  0.40636623  0.81580043  0.04971941     0.97300
C851        C  0.09101176  0.82817669  0.04693701     0.97100
N852        N  0.31321406  0.88573449  0.88136092    -0.35700
N853        N  0.25469725  0.89497689  0.84690156    -0.56200
N854        N  0.19569567  0.87871794  0.88042796    -0.35600
N855        N  0.25381463  0.87332883  0.91638107    -0.56200
C856        C  0.33389604  0.90248221  0.86423186     0.27900
C857        C  0.33286507  0.89197683  0.90113024     0.27900
C858        C  0.17430897  0.89540536  0.86377025     0.27900
C859        C  0.17432189  0.87889633  0.89975501     0.27900
C860        C  0.28595271  0.89377761  0.83311851     0.36500
C861        C  0.22348763  0.89262972  0.83304727     0.36600
C862        C  0.28567082  0.86358214  0.92840663     0.36500
C863        C  0.22356794  0.85601243  0.92700105     0.36600
C864        C  0.36672696  0.92006521  0.87335020    -0.20900
C865        C  0.36621140  0.91315670  0.89659337    -0.20900
C866        C  0.13920229  0.90708631  0.87288338    -0.20900
C867        C  0.13888121  0.89577936  0.89549998    -0.20900
C868        C  0.27453114  0.89000502  0.81039683    -0.22000
C869        C  0.23489593  0.88943837  0.81035335    -0.22000
C870        C  0.27553128  0.84086807  0.94709810    -0.22000
C871        C  0.23603668  0.83590038  0.94612794    -0.22000
C872        C  0.32410374  0.90114681  0.84059177    -0.17300
C873        C  0.32360545  0.87524889  0.92262942    -0.17300
C874        C  0.18476198  0.86020857  0.92020607    -0.17300
C875        C  0.18516438  0.89796354  0.84041333    -0.17300
H876        H  0.38883827  0.93627251  0.86431146     0.15600
H877        H  0.38810969  0.92231865  0.90878018     0.15600
H878        H  0.11587484  0.92175671  0.86422517     0.15600
H879        H  0.11529321  0.89964104  0.90742204     0.15600
H880        H  0.29274347  0.88899942  0.79534030     0.13900
H881        H  0.21658550  0.88783278  0.79529625     0.13900
H882        H  0.29457906  0.82868981  0.95989131     0.13900
H883        H  0.21850628  0.81965486  0.95817476     0.13900
H884        H  0.28960611  0.86708609  0.87936755     0.27100
H885        H  0.22126061  0.86349626  0.87821575     0.27100
N886        N  0.26012317  0.63811754  0.90821687    -0.35700
N887        N  0.19990450  0.62923225  0.87234221    -0.56200
N888        N  0.25687177  0.60185781  0.84122991    -0.35600
N889        N  0.31772528  0.61546652  0.87541714    -0.56200
C890        C  0.23101219  0.65920968  0.91711084     0.27900
C891        C  0.29288398  0.64778351  0.91975396     0.27900
C892        C  0.22610652  0.60555661  0.82706995     0.27900
C893        C  0.28879752  0.60189645  0.82794764     0.27900
C894        C  0.17836260  0.63588323  0.89114989     0.36500
C895        C  0.17601349  0.61264192  0.85668415     0.36600
C896        C  0.33858287  0.61250806  0.89497316     0.36500
C897        C  0.33740594  0.59608416  0.85912557     0.36600
C898        C  0.24524721  0.68204821  0.93485727    -0.20900
C899        C  0.28432139  0.67475776  0.93656483    -0.20900
C900        C  0.23854604  0.60795613  0.80454159    -0.20900
C901        C  0.27818826  0.60590571  0.80509057    -0.20900
C902        C  0.14052546  0.62372055  0.88741344    -0.22000
C903        C  0.13927170  0.60808104  0.86580124    -0.22000
C904        C  0.37146918  0.59087644  0.89114394    -0.22000
C905        C  0.37065750  0.58032102  0.86843475    -0.22000
C906        C  0.19160017  0.65602194  0.91073563    -0.17300
C907        C  0.32998965  0.63229188  0.91555779    -0.17300
C908        C  0.32669779  0.59461806  0.83571713    -0.17300
C909        C  0.18706405  0.60412590  0.83391637    -0.17300
H910        H  0.22909018  0.70159580  0.94563637     0.15600
H911        H  0.30413803  0.68799576  0.94870357     0.15600
H912        H  0.22087495  0.61066162  0.78929233     0.15600
H913        H  0.29696328  0.60648326  0.79026267     0.15600
H914        H  0.11629656  0.62558547  0.89905320     0.13900
H915        H  0.11399277  0.59511752  0.85788868     0.13900
H916        H  0.39384598  0.58373563  0.90339228     0.13900
H917        H  0.39216163  0.56308167  0.85980301     0.13900
H918        H  0.25706812  0.61578109  0.89637736     0.27100
H919        H  0.25583556  0.59452026  0.85851435     0.27100
N920        N  0.07978137  0.95079752  0.72440444    -0.05200
N921        N  0.10236354  0.92036135  0.72148762    -0.57300
N922        N  0.04803187  0.54078889  0.70385769    -0.04800
N923        N  0.04939067  0.57080121  0.68998748    -0.59400
N924        N  0.07603606  0.54274237  0.71909765    -0.04400
N925        N  0.09730467  0.57429782  0.71579797    -0.57300
N926        N  0.05138916  0.94993245  0.70937989    -0.04100
N927        N  0.05374019  0.91921772  0.69613427    -0.59800
C928        C  0.08546397  0.90085044  0.70382574     0.97000
C929        C  0.08014397  0.59147374  0.69760184     0.96800
N930        N  0.43723390  0.54191347  0.72057859    -0.05400
N931        N  0.41589905  0.57309577  0.71728971    -0.57900
N932        N  0.46305820  0.95085004  0.70808050    -0.03500
N933        N  0.45986811  0.92022193  0.69474530    -0.59100
N934        N  0.43516788  0.95141254  0.72336641    -0.05400
N935        N  0.41204304  0.92095521  0.72052783    -0.58100
N936        N  0.46511035  0.54061596  0.70531890    -0.03100
N937        N  0.46360036  0.57068581  0.69148382    -0.59200
Mn938      Mn  0.00726520  0.99445209  0.70778440     1.18400
C939        C  0.43287988  0.59077435  0.69908543     0.99100
C940        C  0.42808612  0.90170010  0.70267606     0.99800
N941        N  0.07912838  0.54558074  0.77306842    -0.05400
N942        N  0.10717912  0.57061341  0.77756821    -0.61700
N943        N  0.05405786  0.95705938  0.79433722    -0.04200
N944        N  0.06143198  0.93182243  0.81070965    -0.62400
N945        N  0.08113519  0.95605449  0.77854053    -0.04900
N946        N  0.10756680  0.93042056  0.78400542    -0.62000
N947        N  0.05232749  0.54717549  0.78900790    -0.03800
N948        N  0.06155983  0.57364375  0.80447904    -0.62700
Mn949      Mn  0.08261906  0.99813527  0.75037867     1.10700
C950        C  0.09573700  0.58832997  0.79709247     1.00300
C951        C  0.09477337  0.91517602  0.80401754     1.00400
N952        N  0.43373315  0.95492804  0.77799530    -0.04900
N953        N  0.40468951  0.93245646  0.78453158    -0.60300
N954        N  0.46192355  0.54343705  0.79075800    -0.04200
N955        N  0.45294339  0.56834417  0.80698921    -0.57000
N956        N  0.43495450  0.54257474  0.77481811    -0.05500
N957        N  0.40695088  0.56656228  0.78012776    -0.59900
N958        N  0.46138350  0.95459398  0.79355726    -0.04500
N959        N  0.45179548  0.93154906  0.81072351    -0.57000
Mn960      Mn  0.43413140  0.99783116  0.74990162     1.20200
Mn961      Mn  0.00911730  0.00172984  0.79413876     1.10100
Cl962      Cl  0.00832340  0.99834690  0.75096110    -0.85000
C963        C  0.41649359  0.91764397  0.80486675     0.97300
C964        C  0.41862390  0.58270818  0.80017991     0.97100
N965        N  0.25947445  0.60180663  0.15084817    -0.35700
N966        N  0.31759852  0.62083411  0.11690758    -0.56200
N967        N  0.25721331  0.64614393  0.08582235    -0.35600
N968        N  0.19935062  0.63056166  0.12116201    -0.56200
C969        C  0.29201956  0.60019591  0.16375380     0.27900
C970        C  0.22908176  0.60281104  0.16543007     0.27900
C971        C  0.28919077  0.66042538  0.07540302     0.27900
C972        C  0.22662502  0.66610896  0.07774402     0.27900
C973        C  0.34004101  0.60197978  0.13215685     0.36500
C974        C  0.33802891  0.62326128  0.09724067     0.36600
C975        C  0.17704909  0.61206408  0.13675568     0.36500
C976        C  0.17642685  0.63717278  0.10286585     0.36600
C977        C  0.28210616  0.60016644  0.18680995    -0.20900
C978        C  0.24241246  0.60165693  0.18785833    -0.20900
C979        C  0.27868931  0.68952094  0.06026270    -0.20900
C980        C  0.23910091  0.69305478  0.06172980    -0.20900
C981        C  0.37479171  0.59196811  0.12211721    -0.22000
C982        C  0.37368551  0.60576156  0.10004790    -0.22000
C983        C  0.13993595  0.60659390  0.12820676    -0.22000
C984        C  0.13939184  0.62311113  0.10685605    -0.22000
C985        C  0.33012686  0.59573245  0.15532544    -0.17300
C986        C  0.18960605  0.60208777  0.15898423    -0.17300
C987        C  0.18766643  0.65868176  0.08348922    -0.17300
C988        C  0.32709171  0.64616199  0.07829384    -0.17300
H989        H  0.30144301  0.59870270  0.20139872     0.15600
H990        H  0.22529887  0.60167325  0.20338189     0.15600
H991        H  0.29747294  0.70615745  0.04909388     0.15600
H992        H  0.22149736  0.71291184  0.05197744     0.15600
H993        H  0.39871522  0.57687467  0.12992284     0.13900
H994        H  0.39694366  0.60379885  0.08775340     0.13900
H995        H  0.11563621  0.59234196  0.13637177     0.13900
H996        H  0.11459931  0.62449326  0.09553542     0.13900
H997        H  0.25773933  0.59746058  0.13324053     0.27100
H998        H  0.25585063  0.62154372  0.09607160     0.27100
N999        N  0.25008999  0.86281705  0.08550625    -0.35700
N1000       N  0.19323266  0.87886777  0.12084477    -0.56200
N1001       N  0.25481265  0.90734059  0.15041774    -0.35600
N1002       N  0.31243720  0.88661416  0.11669497    -0.56200
C1003       C  0.21932239  0.84226201  0.07753035     0.27900
C1004       C  0.28155889  0.85095703  0.07384813     0.27900
C1005       C  0.22419341  0.90808149  0.16487859     0.27900
C1006       C  0.28735388  0.90904096  0.16342578     0.27900
C1007       C  0.16961639  0.87044676  0.10304112     0.36500
C1008       C  0.17152170  0.89773376  0.13638877     0.36600
C1009       C  0.33222277  0.88529934  0.09675337     0.36500
C1010       C  0.33587931  0.90447435  0.13211370     0.36600
C1011       C  0.23137459  0.81724890  0.06042523    -0.20900
C1012       C  0.27067152  0.82288748  0.05801177    -0.20900
C1013       C  0.23741260  0.91052095  0.18730199    -0.20900
C1014       C  0.27714376  0.91093664  0.18640121    -0.20900
C1015       C  0.13264286  0.88375229  0.10735632    -0.22000
C1016       C  0.13406022  0.90179611  0.12826914    -0.22000
C1017       C  0.36851743  0.90211720  0.09958199    -0.22000
C1018       C  0.37085376  0.91420781  0.12198914    -0.22000
C1019       C  0.18039014  0.84798456  0.08396621    -0.17300
C1020       C  0.31954592  0.86570935  0.07672243    -0.17300
C1021       C  0.32589081  0.91200338  0.15518615    -0.17300
C1022       C  0.18464039  0.90867849  0.15840105    -0.17300
H1023       H  0.21361631  0.79754761  0.05040772     0.15600
H1024       H  0.28910441  0.80798357  0.04597617     0.15600
H1025       H  0.22021282  0.91192332  0.20276260     0.15600
H1026       H  0.29633139  0.91288855  0.20105409     0.15600
H1027       H  0.10720847  0.88094799  0.09664267     0.13900
H1028       H  0.10998018  0.91580032  0.13654377     0.13900
H1029       H  0.39111563  0.90505171  0.08686436     0.13900
H1030       H  0.39533457  0.92891157  0.12976975     0.13900
H1031       H  0.24927232  0.88647227  0.09649090     0.27100
H1032       H  0.25336609  0.91037652  0.13273099     0.27100
C1033       C  0.12336054  0.60653787  0.81314475    -0.15500
C1034       C  0.15838308  0.59088573  0.81639073    -0.30700
H1035       H  0.11369775  0.63047820  0.82365107     0.13500
H1036       H  0.16707802  0.56705823  0.80541393     0.14100
C1037       C  0.39114976  0.59759286  0.81707027    -0.15500
C1038       C  0.35521134  0.58279028  0.81817290    -0.30700
H1039       H  0.40141669  0.61801741  0.82991985     0.13500
H1040       H  0.34565842  0.56199590  0.80530282     0.14100
C1041       C  0.15724042  0.91116221  0.82279555    -0.15500
C1042       C  0.12098121  0.89751450  0.82073423    -0.30700
H1043       H  0.16752542  0.93294942  0.81075080     0.13500
H1044       H  0.10964974  0.87607688  0.83261288     0.14100
C1045       C  0.35255406  0.91325551  0.82271108    -0.15500
C1046       C  0.38960976  0.90200469  0.82224005    -0.30700
H1047       H  0.34213889  0.93200815  0.80912182     0.13500
H1048       H  0.40102306  0.88371743  0.83573669     0.14100
C1049       C  0.14075778  0.65840301  0.05179458    -0.15500
C1050       C  0.15654426  0.67657631  0.06990329    -0.30700
H1051       H  0.15374122  0.63220340  0.04513099     0.13500
H1052       H  0.14305783  0.70217226  0.07702262     0.14100
C1053       C  0.37935962  0.64248583  0.04895429    -0.15500
C1054       C  0.35827857  0.66292734  0.06398863    -0.30700
H1055       H  0.37185383  0.61266816  0.04491116     0.13500
H1056       H  0.36522231  0.69321932  0.06712021     0.14100
C1057       C  0.14923264  0.82757547  0.07116377    -0.15500
C1058       C  0.12600415  0.84648221  0.05664546    -0.30700
H1059       H  0.14414065  0.79716440  0.07491515     0.13500
H1060       H  0.13201468  0.87661581  0.05255692     0.14100
C1061       C  0.34904825  0.85539965  0.05935608    -0.15500
C1062       C  0.37579904  0.82946410  0.06501443    -0.30700
H1063       H  0.34745281  0.86716498  0.04212157     0.13500
H1064       H  0.37460422  0.81635746  0.08196249     0.14100
C1065       C  0.13018923  0.85692375  0.94747607    -0.15500
C1066       C  0.15395161  0.83936323  0.93273737    -0.30700
H1067       H  0.13535674  0.88682581  0.95244841     0.13500
H1068       H  0.14914492  0.80921642  0.92815009     0.14100
C1069       C  0.38565811  0.84562233  0.93131044    -0.15500
C1070       C  0.35565180  0.86624819  0.93884121    -0.30700
H1071       H  0.38629742  0.83682547  0.91340528     0.13500
H1072       H  0.35254278  0.87236786  0.95701467     0.14100
C1073       C  0.14099398  0.65668878  0.93996181    -0.15500
C1074       C  0.16219524  0.67609663  0.92456987    -0.30700
H1075       H  0.14813987  0.62694529  0.94412311     0.13500
H1076       H  0.15552222  0.70588414  0.92028859     0.14100
C1077       C  0.39441717  0.65846321  0.92514020    -0.15500
C1078       C  0.36197834  0.64052955  0.93228170    -0.30700
H1079       H  0.39662532  0.66658990  0.90717828     0.13500
H1080       H  0.35713101  0.63603459  0.95048824     0.14100
C1081       C  0.38972041  0.91116919  0.17633473    -0.15500
C1082       C  0.35546097  0.92783873  0.17149275    -0.30700
H1083       H  0.39852216  0.88516681  0.16737027     0.13500
H1084       H  0.34676122  0.95301322  0.18132515     0.14100
C1085       C  0.12315910  0.90511613  0.18132372    -0.15500
C1086       C  0.15663857  0.92316839  0.17565823    -0.30700
H1087       H  0.11450345  0.87824365  0.17304663     0.13500
H1088       H  0.16536218  0.94920887  0.18484675     0.14100
C1089       C  0.39380304  0.59772234  0.17630938    -0.15500
C1090       C  0.35938758  0.58054653  0.17164494    -0.30700
H1091       H  0.40291856  0.62360761  0.16718329     0.13500
H1092       H  0.35025461  0.55552881  0.18161595     0.14100
C1093       C  0.16142708  0.58741259  0.17619167    -0.15500
C1094       C  0.12734280  0.60420571  0.18109158    -0.30700
H1095       H  0.17020707  0.56194866  0.18573869     0.13500
H1096       H  0.11867216  0.63066428  0.17256355     0.14100
C1097       C  0.09306055  0.62812032  0.68711188    -0.15500
C1098       C  0.07021859  0.64650922  0.67208718    -0.30700
H1099       H  0.12196665  0.63908053  0.69079031     0.13500
H1100       H  0.04148485  0.63515289  0.66830279     0.14100
C1101       C  0.07944596  0.84680747  0.67689200    -0.15500
C1102       C  0.10105926  0.86595515  0.69252235    -0.30700
H1103       H  0.05005575  0.85604436  0.67341025     0.13500
H1104       H  0.13055581  0.85715840  0.69602548     0.14100
C1105       C  0.44102227  0.64494327  0.67226626    -0.15500
C1106       C  0.41932243  0.62690550  0.68823114    -0.30700
H1107       H  0.46926769  0.63353862  0.66793755     0.13500
H1108       H  0.39088280  0.63780529  0.69253575     0.14100
C1109       C  0.43330407  0.84561094  0.67725769    -0.15500
C1110       C  0.41165668  0.86666353  0.69168075    -0.30700
H1111       H  0.46359018  0.85308056  0.67466743     0.13500
H1112       H  0.38144908  0.85917867  0.69445226     0.14100
C1113       C  0.35005969  0.61803787  0.57068923    -0.15500
C1114       C  0.36946537  0.64873299  0.56238500    -0.30700
H1115       H  0.34229944  0.61761157  0.58875298     0.13500
H1116       H  0.37447254  0.65167530  0.54408351     0.14100
C1117       C  0.33795662  0.84912827  0.57300242    -0.15500
C1118       C  0.35072335  0.86451086  0.55326529    -0.30700
H1119       H  0.31397601  0.86236417  0.58199941     0.13500
H1120       H  0.37609980  0.85270323  0.54494297     0.14100
C1121       C  0.16661256  0.61866611  0.57132481    -0.15500
C1122       C  0.14536466  0.64787710  0.56311614    -0.30700
H1123       H  0.17526259  0.61910126  0.58926025     0.13500
H1124       H  0.13906959  0.64984710  0.54489871     0.14100
C1125       C  0.16813665  0.84970218  0.57111854    -0.15500
C1126       C  0.15109796  0.87020042  0.55448682    -0.30700
H1127       H  0.19696339  0.85746586  0.57710248     0.13500
H1128       H  0.12218107  0.86247712  0.54864761     0.14100
C1129       C  0.10539325  0.65440351  0.31953291    -0.15500
C1130       C  0.10189408  0.61558761  0.32166634    -0.30700
H1131       H  0.09931378  0.66640587  0.30269601     0.13500
H1132       H  0.10721314  0.60091043  0.33774601     0.14100
C1133       C  0.09916721  0.89054480  0.32253443    -0.15500
C1134       C  0.10234550  0.85192981  0.31956557    -0.30700
H1135       H  0.10625780  0.90449885  0.33865723     0.13500
H1136       H  0.09463950  0.84050387  0.30279037     0.14100
C1137       C  0.18420496  0.65577984  0.43091585    -0.15500
C1138       C  0.16456128  0.63781907  0.44781086    -0.30700
H1139       H  0.21268520  0.64554635  0.42610601     0.13500
H1140       H  0.13588704  0.64747584  0.45259979     0.14100
C1141       C  0.16240507  0.87581246  0.44287188    -0.15500
C1142       C  0.18481624  0.85558692  0.42852086    -0.30700
H1143       H  0.13312592  0.86600724  0.44657273     0.13500
H1144       H  0.21397694  0.86568634  0.42474311     0.14100
C1145       C  0.43024651  0.65181600  0.32770313    -0.15500
C1146       C  0.41069356  0.62212439  0.31788508    -0.30700
H1147       H  0.46067683  0.65569880  0.32364147     0.13500
H1148       H  0.38014962  0.61764064  0.32138856     0.14100
C1149       C  0.41034286  0.88840653  0.31933360    -0.15500
C1150       C  0.40475693  0.85003091  0.31617942    -0.30700
H1151       H  0.40505851  0.90213400  0.33572509     0.13500
H1152       H  0.41104606  0.83834119  0.29929858     0.14100
C1153       C  0.33257459  0.65698929  0.43314052    -0.15500
C1154       C  0.35416438  0.63564975  0.44751255    -0.30700
H1155       H  0.30186247  0.65074677  0.43122284     0.13500
H1156       H  0.38471226  0.64213349  0.44984072     0.14100
C1157       C  0.34316540  0.87533618  0.43995580    -0.15500
C1158       C  0.32113981  0.85743388  0.42409863    -0.30700
H1159       H  0.37125678  0.86377520  0.44452612     0.13500
H1160       H  0.29332123  0.86944184  0.41935417     0.14100
N1161       N  0.85172675  0.25680217  0.40766199    -0.35700
N1162       N  0.88408953  0.19529006  0.37960067    -0.56200
N1163       N  0.90108823  0.25191624  0.34400318    -0.35600
N1164       N  0.87147529  0.31389247  0.37257256    -0.56200
C1165       C  0.85008980  0.22731577  0.42287260     0.27900
C1166       C  0.84424500  0.28991546  0.41919084     0.27900
C1167       C  0.92227380  0.22127607  0.33698578     0.27900
C1168       C  0.91554640  0.28396640  0.33348652     0.27900
C1169       C  0.86854161  0.17339691  0.39652596     0.36500
C1170       C  0.89483632  0.17064603  0.36276452     0.36600
C1171       C  0.84649073  0.33412886  0.38557646     0.36500
C1172       C  0.87338071  0.33203117  0.35207119     0.36600
C1173       C  0.84112634  0.24176917  0.44438255    -0.20900
C1174       C  0.83755276  0.28127432  0.44208751    -0.20900
C1175       C  0.95052039  0.23411298  0.32180906    -0.20900
C1176       C  0.94653799  0.27352544  0.31980296    -0.20900
C1177       C  0.87010763  0.13460916  0.39058471    -0.22000
C1178       C  0.88717762  0.13281765  0.36943772    -0.22000
C1179       C  0.83232793  0.36523849  0.37325632    -0.22000
C1180       C  0.84869766  0.36339275  0.35186504    -0.22000
C1181       C  0.85380175  0.18755259  0.41755816    -0.17300
C1182       C  0.83908126  0.32673648  0.40898025    -0.17300
C1183       C  0.89934968  0.32162890  0.33445796    -0.17300
C1184       C  0.91480991  0.18185633  0.34258383    -0.17300
H1185       H  0.83690890  0.22545494  0.46003228     0.15600
H1186       H  0.82945045  0.30102773  0.45560965     0.15600
H1187       H  0.97189186  0.21713168  0.31291282     0.15600
H1188       H  0.96435480  0.29217736  0.30921029     0.15600
H1189       H  0.86056645  0.10992884  0.40055707     0.13900
H1190       H  0.89393405  0.10632343  0.36054075     0.13900
H1191       H  0.81204763  0.38685675  0.37893844     0.13900
H1192       H  0.84270735  0.38287757  0.33782816     0.13900
H1193       H  0.85317612  0.25392758  0.38999973     0.27100
H1194       H  0.87526753  0.25029839  0.35310111     0.27100
N1195       N  0.63989422  0.19580692  0.37627821    -0.35700
N1196       N  0.66241332  0.25746265  0.40817192    -0.56200
N1197       N  0.63791210  0.31480776  0.37478692    -0.35600
N1198       N  0.61131757  0.25322294  0.34441860    -0.56200
C1199       C  0.64613126  0.17531470  0.39567748     0.27900
C1200       C  0.62001479  0.17255088  0.36161057     0.27900
C1201       C  0.64364762  0.33723653  0.39351980     0.27900
C1202       C  0.61613376  0.33533085  0.35992860     0.27900
C1203       C  0.67844100  0.22690477  0.41892753     0.36500
C1204       C  0.67813780  0.28955975  0.41780939     0.36600
C1205       C  0.60725890  0.22127529  0.33114108     0.36500
C1206       C  0.60561336  0.28402654  0.33052418     0.36600
C1207       C  0.63037499  0.13847208  0.39320213    -0.20900
C1208       C  0.61362264  0.13684659  0.37181599    -0.20900
C1209       C  0.62564903  0.37255738  0.39040900    -0.20900
C1210       C  0.60783099  0.37113126  0.36938437    -0.20900
C1211       C  0.70394532  0.23963627  0.43576007    -0.22000
C1212       C  0.70378001  0.27939896  0.43503473    -0.22000
C1213       C  0.59880747  0.23193404  0.30876902    -0.22000
C1214       C  0.59776148  0.27155637  0.30838285    -0.22000
C1215       C  0.66855921  0.18779922  0.41467080    -0.17300
C1216       C  0.60830029  0.18254663  0.33911308    -0.17300
C1217       C  0.60495331  0.32315793  0.33771626    -0.17300
C1218       C  0.66725665  0.32775790  0.41245134    -0.17300
H1219       H  0.63098400  0.11500302  0.40545854     0.15600
H1220       H  0.59850125  0.11206242  0.36468500     0.15600
H1221       H  0.62526931  0.39701276  0.40197303     0.15600
H1222       H  0.59081884  0.39407703  0.36197235     0.15600
H1223       H  0.72059278  0.22212834  0.44749922     0.13900
H1224       H  0.72017564  0.29860035  0.44614058     0.13900
H1225       H  0.59371074  0.21313979  0.29419894     0.13900
H1226       H  0.59173810  0.28911869  0.29346171     0.13900
H1227       H  0.65230517  0.22246160  0.37233700     0.27100
H1228       H  0.65186433  0.28898985  0.37125008     0.27100
N1229       N  0.82948721  0.46017640  0.47297845    -0.05200
N1230       N  0.85029370  0.42890956  0.46903438    -0.57300
N1231       N  0.80409582  0.05159331  0.46085811    -0.04800
N1232       N  0.80805748  0.08325179  0.44849132    -0.59400
N1233       N  0.83224592  0.04895521  0.47595849    -0.04400
N1234       N  0.85642643  0.07871566  0.47387367    -0.57300
N1235       N  0.80117753  0.46249362  0.45794539    -0.04100
N1236       N  0.80210547  0.43314917  0.44351398    -0.59800
C1237       C  0.83280605  0.41242080  0.45058701     0.97000
C1238       C  0.84060257  0.10004030  0.45680870     0.96800
N1239       N  0.68755136  0.05431084  0.47728981    -0.05400
N1240       N  0.66590251  0.08556615  0.47516829    -0.57900
N1241       N  0.71120017  0.46407605  0.45886570    -0.03500
N1242       N  0.70771201  0.43492897  0.44443266    -0.59100
N1243       N  0.68374117  0.46272125  0.47441403    -0.05400
N1244       N  0.66080369  0.43245075  0.47081418    -0.58100
N1245       N  0.71482825  0.05449853  0.46160410    -0.03100
N1246       N  0.71271279  0.08566449  0.44873965    -0.59200
Mn1247     Mn  0.75731233  0.00855925  0.45846087     1.18400
C1248       C  0.68227995  0.10493677  0.45735192     0.99100
C1249       C  0.67627566  0.41543154  0.45208021     0.99800
N1250       N  0.83270297  0.04129262  0.53022194    -0.05400
N1251       N  0.85589413  0.07096276  0.53521094    -0.61700
N1252       N  0.80455633  0.44921656  0.54190115    -0.04200
N1253       N  0.80898614  0.41750981  0.55416783    -0.62400
N1254       N  0.83203721  0.45239764  0.52642676    -0.04900
N1255       N  0.85574197  0.42263121  0.52784754    -0.62000
N1256       N  0.80586971  0.03763608  0.54606627    -0.03800
N1257       N  0.81021909  0.06403981  0.56210461    -0.62700
Mn1258     Mn  0.83261427  0.00032621  0.50070301     1.10700
C1259       C  0.84114572  0.08474805  0.55517230     1.00300
C1260       C  0.84086879  0.40104884  0.54516705     1.00400
N1261       N  0.68527273  0.45426208  0.52769543    -0.04900
N1262       N  0.66053085  0.42496924  0.52950946    -0.60300
N1263       N  0.71656646  0.04077010  0.54705851    -0.04200
N1264       N  0.71473153  0.06707542  0.56333340    -0.57000
N1265       N  0.68920229  0.04601675  0.53168624    -0.05500
N1266       N  0.66815959  0.07645419  0.53723344    -0.59900
N1267       N  0.71356733  0.45046897  0.54262135    -0.04500
N1268       N  0.70867336  0.41885251  0.55491956    -0.57000
Mn1269     Mn  0.68408469  0.00566137  0.50219421     1.20200
Mn1270     Mn  0.75935600  0.99483090  0.54439682     1.10100
Cl1271     Cl  0.75833668  0.00252003  0.50144891    -0.85000
C1272       C  0.67563161  0.40311936  0.54653129     0.97300
C1273       C  0.68473281  0.08921924  0.55699485     0.97100
N1274       N  0.90544913  0.18779314  0.61888386    -0.35700
N1275       N  0.91610936  0.24418164  0.65499298    -0.56200
N1276       N  0.88940867  0.30382471  0.62371574    -0.35600
N1277       N  0.88182102  0.24766054  0.58656994    -0.56200
C1278       C  0.92474148  0.16651275  0.63462451     0.27900
C1279       C  0.90740085  0.16865765  0.59864966     0.27900
C1280       C  0.90569955  0.32608238  0.64032071     0.27900
C1281       C  0.88241262  0.32714105  0.60556651     0.27900
C1282       C  0.92242661  0.21212331  0.66766289     0.36500
C1283       C  0.91811291  0.27466456  0.66946241     0.36600
C1284       C  0.87298899  0.21591567  0.57396796     0.36500
C1285       C  0.86210697  0.27732961  0.57715241     0.36600
C1286       C  0.93913679  0.13353199  0.62417123    -0.20900
C1287       C  0.92842390  0.13504951  0.60150547    -0.20900
C1288       C  0.90867980  0.36401100  0.63258665    -0.20900
C1289       C  0.89365439  0.36470908  0.61077619    -0.20900
C1290       C  0.92859453  0.22233405  0.69039063    -0.22000
C1291       C  0.92607018  0.26200983  0.69149609    -0.22000
C1292       C  0.84829075  0.22565349  0.55615966    -0.22000
C1293       C  0.84138293  0.26462391  0.55819597    -0.22000
C1294       C  0.92753853  0.17467067  0.65841960    -0.17300
C1295       C  0.88700709  0.17835577  0.57836695    -0.17300
C1296       C  0.86384047  0.31596562  0.58499251    -0.17300
C1297       C  0.91643710  0.31381351  0.66262658    -0.17300
H1298       H  0.95523135  0.11032313  0.63201510     0.15600
H1299       H  0.93453360  0.11329162  0.58868887     0.15600
H1300       H  0.91998149  0.38886263  0.64180683     0.15600
H1301       H  0.89135132  0.39002422  0.59996070     0.15600
H1302       H  0.93580738  0.20345131  0.70452576     0.13900
H1303       H  0.93043828  0.27958443  0.70666693     0.13900
H1304       H  0.83610879  0.20664187  0.54322154     0.13900
H1305       H  0.82313014  0.28162086  0.54705351     0.13900
H1306       H  0.88751100  0.21097354  0.62238961     0.27100
H1307       H  0.87970908  0.27546777  0.62540954     0.27100
N1308       N  0.62544555  0.30539407  0.62497330    -0.35700
N1309       N  0.63791457  0.24941250  0.58837860    -0.56200
N1310       N  0.61573063  0.18884562  0.62053195    -0.35600
N1311       N  0.60092097  0.24498747  0.65626139    -0.56200
C1312       C  0.63218607  0.32883617  0.60680841     0.27900
C1313       C  0.60761367  0.32688032  0.64119461     0.27900
C1314       C  0.61557366  0.16931407  0.60039137     0.27900
C1315       C  0.59618522  0.16681713  0.63590909     0.27900
C1316       C  0.65631148  0.28020703  0.57904032     0.36500
C1317       C  0.64853168  0.21828472  0.57597430     0.36600
C1318       C  0.59696648  0.27540042  0.67057940     0.36500
C1319       C  0.59537390  0.21269340  0.66888309     0.36600
C1320       C  0.61903978  0.36568900  0.61157658    -0.20900
C1321       C  0.60319366  0.36439617  0.63314129    -0.20900
C1322       C  0.59563450  0.13463846  0.60293673    -0.20900
C1323       C  0.58347438  0.13297961  0.62531109    -0.20900
C1324       C  0.67795731  0.26879525  0.56027265    -0.22000
C1325       C  0.67292429  0.22943490  0.55828248    -0.22000
C1326       C  0.58867278  0.26242740  0.69252113    -0.22000
C1327       C  0.58786636  0.22262593  0.69148337    -0.22000
C1328       C  0.65238959  0.31862907  0.58671905    -0.17300
C1329       C  0.59707429  0.31449207  0.66353061    -0.17300
C1330       C  0.59175244  0.17507644  0.65957207    -0.17300
C1331       C  0.63619794  0.18005721  0.58042324    -0.17300
H1332       H  0.62076690  0.39095828  0.60066243     0.15600
H1333       H  0.59055817  0.38867066  0.64204081     0.15600
H1334       H  0.59102085  0.11243231  0.59009417     0.15600
H1335       H  0.56761046  0.10911152  0.63291075     0.15600
H1336       H  0.69546735  0.28691309  0.54918138     0.13900
H1337       H  0.68603886  0.21111688  0.54546153     0.13900
H1338       H  0.58279971  0.27980726  0.70753884     0.13900
H1339       H  0.58076793  0.20338891  0.70552316     0.13900
H1340       H  0.63655233  0.27782883  0.62703039     0.27100
H1341       H  0.63262465  0.21303551  0.62431822     0.27100
N1342       N  0.96126345  0.42829109  0.27023517    -0.05200
N1343       N  0.95692187  0.39998973  0.28512911    -0.57300
N1344       N  0.93109817  0.46256328  0.22161726    -0.04800
N1345       N  0.90342084  0.46009128  0.20613468    -0.59400
N1346       N  0.95800414  0.43666673  0.21773664    -0.04400
N1347       N  0.94827893  0.41528489  0.19963180    -0.57300
N1348       N  0.93672741  0.45633491  0.27437358    -0.04100
N1349       N  0.91486724  0.44732280  0.29229468    -0.59800
C1350       C  0.92799722  0.41201957  0.29874109     0.97000
C1351       C  0.91422986  0.43069180  0.19244415     0.96800
N1352       N  0.95967480  0.07325886  0.22021419    -0.05400
N1353       N  0.94971652  0.09687688  0.20329898    -0.57900
N1354       N  0.93683702  0.05275185  0.27589040    -0.03500
N1355       N  0.91379775  0.06273606  0.29301469    -0.59100
N1356       N  0.96357475  0.07960588  0.27279632    -0.05400
N1357       N  0.96024614  0.10743227  0.28807137    -0.58100
N1358       N  0.93198947  0.04751451  0.22363034    -0.03100
N1359       N  0.90339698  0.05235810  0.20905480    -0.59200
Mn1360     Mn  0.93342337  0.50505441  0.24962489     1.18400
C1361       C  0.91458847  0.08305405  0.19641543     0.99100
C1362       C  0.92928023  0.09669517  0.30063617     0.99800
N1363       N  0.55354365  0.43478335  0.22040026    -0.05400
N1364       N  0.56312923  0.41163570  0.20318798    -0.61700
N1365       N  0.57643435  0.45671755  0.27581860    -0.04200
N1366       N  0.60041673  0.44650151  0.29246296    -0.62400
N1367       N  0.54987480  0.42963750  0.27272480    -0.04900
N1368       N  0.55447565  0.40125633  0.28742676    -0.62000
N1369       N  0.58103006  0.46081382  0.22373884    -0.03800
N1370       N  0.60903462  0.45670037  0.20880421    -0.62700
Mn1371     Mn  0.50569265  0.43123017  0.24576738     1.10700
C1372       C  0.59778579  0.42613844  0.19606214     1.00300
C1373       C  0.58589090  0.41196607  0.29966628     1.00400
N1374       N  0.55362322  0.07705822  0.27288419    -0.04900
N1375       N  0.55875250  0.10482249  0.28802184    -0.60300
N1376       N  0.58245972  0.04577119  0.22311521    -0.04200
N1377       N  0.60953927  0.04914247  0.20744240    -0.57000
N1378       N  0.55571722  0.07223140  0.22027907    -0.05500
N1379       N  0.56489745  0.09484704  0.20267333    -0.59900
N1380       N  0.57936150  0.04964071  0.27568792    -0.04500
N1381       N  0.60335779  0.05908929  0.29265558    -0.57000
Mn1382     Mn  0.50886294  0.07647645  0.24633044     1.20200
Mn1383     Mn  0.58051627  0.50449515  0.25070687     1.10100
Cl1384     Cl  0.50720332  0.50495829  0.24839556    -0.85000
C1385       C  0.58963802  0.09350843  0.30033655     0.97300
C1386       C  0.59848978  0.07967467  0.19475356     0.97100
N1387       N  0.96848304  0.17836917  0.96757470    -0.05200
N1388       N  0.93987207  0.15370637  0.96291588    -0.57300
N1389       N  0.55739950  0.20958333  0.95183194    -0.04800
N1390       N  0.58614760  0.20615831  0.93721868    -0.59400
N1391       N  0.55905865  0.18251129  0.96764671    -0.04400
N1392       N  0.58929097  0.16003884  0.96405065    -0.57300
N1393       N  0.96820957  0.20715808  0.95280839    -0.04100
N1394       N  0.94008514  0.20263527  0.93777972    -0.59800
C1395       C  0.92247657  0.16950283  0.94427789     0.97000
C1396       C  0.60599545  0.17549403  0.94507385     0.96800
N1397       N  0.54686648  0.32778856  0.96603139    -0.05400
N1398       N  0.57458578  0.35395279  0.96246116    -0.57900
N1399       N  0.96154096  0.29739837  0.95527902    -0.03500
N1400       N  0.93513580  0.30225474  0.93926402    -0.59100
N1401       N  0.95740450  0.32309549  0.97174635    -0.05400
N1402       N  0.92781174  0.34598397  0.96721279    -0.58100
N1403       N  0.54962430  0.29964252  0.95093231    -0.03100
N1404       N  0.57849801  0.30602244  0.93677170    -0.59200
Mn1405     Mn  0.50967700  0.25065466  0.94972167     1.18400
C1406       C  0.59412998  0.33955500  0.94418865     0.99100
C1407       C  0.91415411  0.33227912  0.94692086     0.99800
N1408       N  0.55530941  0.18427403  0.02224138    -0.05400
N1409       N  0.58554348  0.16293977  0.02794371    -0.61700
N1410       N  0.96314000  0.20024966  0.03766160    -0.04200
N1411       N  0.93207466  0.19412262  0.05018662    -0.62400
N1412       N  0.96595806  0.17386729  0.02149413    -0.04900
N1413       N  0.93674988  0.14895802  0.02280965    -0.62000
N1414       N  0.55067778  0.21215652  0.03734125    -0.03800
N1415       N  0.57715238  0.21043658  0.05351451    -0.62700
Mn1416     Mn  0.51273395  0.17760773  0.99377847     1.10700
C1417       C  0.59888705  0.18002704  0.04745190     1.00300
C1418       C  0.91584983  0.16220379  0.04072513     1.00400
N1419       N  0.95419794  0.31797876  0.02620164    -0.04900
N1420       N  0.92294041  0.33864809  0.03055103    -0.60300
N1421       N  0.54407965  0.30213496  0.03565547    -0.04200
N1422       N  0.57432918  0.30796171  0.04912968    -0.57000
N1423       N  0.54252532  0.32913906  0.01980197    -0.05500
N1424       N  0.57157306  0.35397174  0.02220959    -0.59900
N1425       N  0.95686294  0.28937394  0.04093721    -0.04500
N1426       N  0.92789696  0.28979324  0.05551462    -0.57000
Mn1427     Mn  0.49949230  0.32588501  0.99205205     1.20200
Mn1428     Mn  0.50283955  0.25286382  0.03599041     1.10100
Cl1429     Cl  0.50625991  0.25173671  0.99288485    -0.85000
C1430       C  0.90679664  0.32030382  0.04883012     0.97300
C1431       C  0.59115701  0.34037857  0.04055494     0.97100
N1432       N  0.81589270  0.39450195  0.88334740    -0.35700
N1433       N  0.75754893  0.40134808  0.84868549    -0.56200
N1434       N  0.69817737  0.39767648  0.88312412    -0.35600
N1435       N  0.75631291  0.39488417  0.91923825    -0.56200
C1436       C  0.83728046  0.40781957  0.86550069     0.27900
C1437       C  0.83625092  0.40155033  0.90270644     0.27900
C1438       C  0.67833572  0.41176443  0.86496732     0.27900
C1439       C  0.67800372  0.40663370  0.90218469     0.27900
C1440       C  0.78869923  0.39511481  0.83533856     0.36500
C1441       C  0.72623157  0.39595877  0.83518992     0.36600
C1442       C  0.78712968  0.38276857  0.93151457     0.36500
C1443       C  0.72446825  0.38484256  0.93141283     0.36600
C1444       C  0.87133746  0.42427358  0.87380084    -0.20900
C1445       C  0.87093896  0.41968095  0.89727100    -0.20900
C1446       C  0.64567112  0.43079502  0.87272089    -0.20900
C1447       C  0.64520024  0.42702635  0.89622483    -0.20900
C1448       C  0.77714927  0.38502734  0.81333830    -0.22000
C1449       C  0.73747316  0.38546596  0.81325789    -0.22000
C1450       C  0.77488825  0.36562318  0.95175594    -0.22000
C1451       C  0.73510344  0.36690847  0.95168496    -0.22000
C1452       C  0.82698265  0.40365639  0.84204812    -0.17300
C1453       C  0.82605081  0.38783000  0.92472329    -0.17300
C1454       C  0.68615811  0.39233800  0.92433629    -0.17300
C1455       C  0.68834975  0.40569090  0.84169344    -0.17300
H1456       H  0.89430610  0.43800255  0.86412573     0.15600
H1457       H  0.89364107  0.42846669  0.90903335     0.15600
H1458       H  0.62410184  0.44553971  0.86260605     0.15600
H1459       H  0.62301974  0.43757423  0.90764698     0.15600
H1460       H  0.79541120  0.37913445  0.79871588     0.13900
H1461       H  0.71908284  0.38000418  0.79854467     0.13900
H1462       H  0.79267366  0.35322718  0.96510259     0.13900
H1463       H  0.71629863  0.35564404  0.96495441     0.13900
H1464       H  0.79103038  0.37730715  0.88234347     0.27100
H1465       H  0.72136469  0.37866476  0.88242945     0.27100
N1466       N  0.76164166  0.10806876  0.91851402    -0.35700
N1467       N  0.70140556  0.10303946  0.88281388    -0.56200
N1468       N  0.75991583  0.09308213  0.84832306    -0.35600
N1469       N  0.82013799  0.10370763  0.88215491    -0.56200
C1470       C  0.73048193  0.12115292  0.93010775     0.27900
C1471       C  0.79364353  0.12060827  0.92984169     0.27900
C1472       C  0.72818049  0.09766324  0.83508940     0.27900
C1473       C  0.79101750  0.09864778  0.83468568     0.27900
C1474       C  0.68004322  0.10025890  0.90211285     0.36500
C1475       C  0.67882315  0.08978501  0.86545454     0.36600
C1476       C  0.84201047  0.09935580  0.90118179     0.36500
C1477       C  0.84149855  0.09061411  0.86438933     0.36600
C1478       C  0.74280191  0.14114429  0.94947080    -0.20900
C1479       C  0.78267578  0.14080486  0.94930038    -0.20900
C1480       C  0.73920404  0.10659746  0.81284144    -0.20900
C1481       C  0.77891987  0.10724988  0.81258818    -0.20900
C1482       C  0.64370444  0.08528232  0.89705272    -0.22000
C1483       C  0.64311455  0.07805140  0.87387942    -0.22000
C1484       C  0.87732770  0.08337641  0.89553820    -0.22000
C1485       C  0.87687170  0.07743809  0.87225480    -0.22000
C1486       C  0.69133953  0.11525817  0.92369314    -0.17300
C1487       C  0.83233714  0.11396930  0.92305600    -0.17300
C1488       C  0.82972210  0.09215221  0.84114562    -0.17300
C1489       C  0.68981789  0.09021380  0.84206136    -0.17300
H1490       H  0.72497821  0.15496057  0.96226672     0.15600
H1491       H  0.80138538  0.15435796  0.96192068     0.15600
H1492       H  0.72055996  0.11132117  0.79819332     0.15600
H1493       H  0.79684153  0.11251714  0.79769315     0.15600
H1494       H  0.62006870  0.08026938  0.90886342     0.13900
H1495       H  0.61896362  0.06584933  0.86443931     0.13900
H1496       H  0.90103166  0.07695592  0.90703211     0.13900
H1497       H  0.90004640  0.06492177  0.86237040     0.13900
H1498       H  0.76108631  0.08965096  0.90440380     0.27100
H1499       H  0.76032401  0.08122131  0.86470022     0.27100
N1500       N  0.58094534  0.45171000  0.72366359    -0.05200
N1501       N  0.60284533  0.42061496  0.72168752    -0.57300
N1502       N  0.55357851  0.03934383  0.70711758    -0.04800
N1503       N  0.55578412  0.06917891  0.69320158    -0.59400
N1504       N  0.58084546  0.04117827  0.72282856    -0.04400
N1505       N  0.60248962  0.07262864  0.71975545    -0.57300
N1506       N  0.55370789  0.45125313  0.70789917    -0.04100
N1507       N  0.55614705  0.41996539  0.69508274    -0.59800
C1508       C  0.58677519  0.40101056  0.70383792     0.97000
C1509       C  0.58624222  0.08977290  0.70119175     0.96800
N1510       N  0.93627133  0.04196910  0.72303248    -0.05400
N1511       N  0.91522681  0.07330786  0.71951111    -0.57900
N1512       N  0.95895739  0.45082079  0.70721162    -0.03500
N1513       N  0.95629013  0.41952814  0.69443041    -0.59100
N1514       N  0.93172819  0.45109624  0.72291373    -0.05400
N1515       N  0.90952561  0.41976827  0.72088637    -0.58100
N1516       N  0.96349343  0.03956834  0.70740847    -0.03100
N1517       N  0.96186758  0.06897773  0.69312844    -0.59200
Mn1518     Mn  0.50940588  0.49590190  0.70590189     1.18400
C1519       C  0.93177472  0.08986525  0.70078431     0.99100
C1520       C  0.92552341  0.40029149  0.70309893     0.99800
N1521       N  0.58244714  0.04112946  0.77750995    -0.05400
N1522       N  0.61133759  0.06406184  0.78382822    -0.61700
N1523       N  0.55266573  0.45552763  0.79332386    -0.04200
N1524       N  0.56138101  0.43274331  0.81070945    -0.62400
N1525       N  0.58062288  0.45547519  0.77803204    -0.04900
N1526       N  0.60893520  0.43292010  0.78492187    -0.62000
N1527       N  0.55483932  0.04186860  0.79299966    -0.03800
N1528       N  0.56419746  0.06575077  0.80983095    -0.62700
Mn1529     Mn  0.58230970  0.49825151  0.74996472     1.10700
C1530       C  0.59940610  0.07967672  0.80391819     1.00300
C1531       C  0.59648374  0.41859707  0.80526144     1.00400
N1532       N  0.93249301  0.45666180  0.77745274    -0.04900
N1533       N  0.90476168  0.43296284  0.78443594    -0.60300
N1534       N  0.96379835  0.04602722  0.79292631    -0.04200
N1535       N  0.95500705  0.07078232  0.80931148    -0.57000
N1536       N  0.93603542  0.04457608  0.77747268    -0.05500
N1537       N  0.90775368  0.06795618  0.78330372    -0.59900
N1538       N  0.96052222  0.45807885  0.79274229    -0.04500
N1539       N  0.95256673  0.43499110  0.81017045    -0.57000
Mn1540     Mn  0.93065477  0.49837225  0.74883162     1.20200
Mn1541     Mn  0.50704669  0.49942070  0.79245646     1.10100
Cl1542     Cl  0.50824980  0.49774021  0.74921305    -0.85000
C1543       C  0.91778245  0.41927135  0.80479628     0.97300
C1544       C  0.91999550  0.08443787  0.80315292     0.97100
N1545       N  0.75614915  0.10029337  0.14885159    -0.35700
N1546       N  0.81641110  0.12101021  0.11714845    -0.56200
N1547       N  0.75760038  0.13026050  0.08087647    -0.35600
N1548       N  0.69678266  0.11483770  0.11438250    -0.56200
C1549       C  0.78712187  0.10166862  0.16314672     0.27900
C1550       C  0.72394865  0.10004770  0.16203984     0.27900
C1551       C  0.78867912  0.14772162  0.07113196     0.27900
C1552       C  0.72598465  0.14130816  0.06890489     0.27900
C1553       C  0.83900678  0.10615768  0.13385552     0.36500
C1554       C  0.83914261  0.12531337  0.09854339     0.36600
C1555       C  0.67438555  0.09878167  0.13090942     0.36500
C1556       C  0.67572522  0.11372973  0.09482131     0.36600
C1557       C  0.77439231  0.10255643  0.18567238    -0.20900
C1558       C  0.73463658  0.10159658  0.18498176    -0.20900
C1559       C  0.77679926  0.16927358  0.05238446    -0.20900
C1560       C  0.73724424  0.16509888  0.05092041    -0.20900
C1561       C  0.87620938  0.10070154  0.12569103    -0.22000
C1562       C  0.87648691  0.11365421  0.10348973    -0.22000
C1563       C  0.63893882  0.08757757  0.12180913    -0.22000
C1564       C  0.63973406  0.09721059  0.09897998    -0.22000
C1565       C  0.82649698  0.09910138  0.15654570    -0.17300
C1566       C  0.68542355  0.09465054  0.15414938    -0.17300
C1567       C  0.68732572  0.13028408  0.07369381    -0.17300
C1568       C  0.82761564  0.14316187  0.07795950    -0.17300
H1569       H  0.79194584  0.10321696  0.20106035     0.15600
H1570       H  0.71574343  0.10120681  0.19976112     0.15600
H1571       H  0.79477407  0.18609575  0.04085187     0.15600
H1572       H  0.71886687  0.17845161  0.03819616     0.15600
H1573       H  0.90081507  0.08880083  0.13459588     0.13900
H1574       H  0.90136368  0.11415255  0.09226575     0.13900
H1575       H  0.61503356  0.07367398  0.13058323     0.13900
H1576       H  0.61647562  0.09255491  0.08680643     0.13900
H1577       H  0.75695533  0.09429823  0.13142929     0.27100
H1578       H  0.75823507  0.10956356  0.09377545     0.27100
N1579       N  0.74948583  0.37490413  0.08051178    -0.35700
N1580       N  0.69277931  0.38776870  0.11671318    -0.56200
N1581       N  0.75468434  0.41279206  0.14725209    -0.35600
N1582       N  0.81194097  0.39502215  0.11289558    -0.56200
C1583       C  0.71811717  0.35612641  0.07181394     0.27900
C1584       C  0.78082929  0.36221012  0.06899191     0.27900
C1585       C  0.72415447  0.41201198  0.16178643     0.27900
C1586       C  0.78730801  0.41405215  0.16020310     0.27900
C1587       C  0.66929467  0.38276849  0.09841021     0.36500
C1588       C  0.67143767  0.40544447  0.13293543     0.36600
C1589       C  0.83218916  0.39331425  0.09313150     0.36500
C1590       C  0.83566345  0.41155503  0.12870168     0.36600
C1591       C  0.72955590  0.33189305  0.05419136    -0.20900
C1592       C  0.76913405  0.33583937  0.05234330    -0.20900
C1593       C  0.73753940  0.41286760  0.18422390    -0.20900
C1594       C  0.77726398  0.41411256  0.18322888    -0.20900
C1595       C  0.63286752  0.39713490  0.10299583    -0.22000
C1596       C  0.63441901  0.41219907  0.12473922    -0.22000
C1597       C  0.86897633  0.40875943  0.09642401    -0.22000
C1598       C  0.87113938  0.42038644  0.11892610    -0.22000
C1599       C  0.67934931  0.36197243  0.07859199    -0.17300
C1600       C  0.81958275  0.37414102  0.07292833    -0.17300
C1601       C  0.82576878  0.41788566  0.15193962    -0.17300
C1602       C  0.68457180  0.41343699  0.15539613    -0.17300
H1603       H  0.71128238  0.31349152  0.04364980     0.15600
H1604       H  0.78725364  0.32072564  0.04023417     0.15600
H1605       H  0.72045432  0.41296140  0.19975628     0.15600
H1606       H  0.79655363  0.41535467  0.19785907     0.15600
H1607       H  0.60783715  0.39695201  0.09182824     0.13900
H1608       H  0.61080041  0.42626166  0.13343906     0.13900
H1609       H  0.89206317  0.41093179  0.08396658     0.13900
H1610       H  0.89602694  0.43375795  0.12707482     0.13900
H1611       H  0.74929635  0.39744385  0.09231671     0.27100
H1612       H  0.75307360  0.41721244  0.12967577     0.27100
C1613       C  0.62638804  0.09453099  0.82151109    -0.15500
C1614       C  0.66187623  0.07953733  0.82359497    -0.30700
H1615       H  0.61582181  0.11495903  0.83412856     0.13500
H1616       H  0.67173342  0.05900492  0.81078532     0.14100
C1617       C  0.89293213  0.09861056  0.82066332    -0.15500
C1618       C  0.85725514  0.08318349  0.82233570    -0.30700
H1619       H  0.90364551  0.11845101  0.83370157     0.13500
H1620       H  0.84719171  0.06315152  0.80918042     0.14100
C1621       C  0.66062767  0.41462358  0.82289228    -0.15500
C1622       C  0.62303645  0.40449136  0.82313610    -0.30700
H1623       H  0.67199052  0.43034105  0.80819564     0.13500
H1624       H  0.61099315  0.38885015  0.83764299     0.14100
C1625       C  0.85453074  0.41391657  0.82330381    -0.15500
C1626       C  0.89189130  0.40371477  0.82272266    -0.30700
H1627       H  0.84302931  0.43084169  0.80918144     0.13500
H1628       H  0.90431781  0.38692652  0.83658098     0.14100
C1629       C  0.62901534  0.16523158  0.06286827    -0.15500
C1630       C  0.65678714  0.14055343  0.05671954    -0.30700
H1631       H  0.62938370  0.17692414  0.08018731     0.13500
H1632       H  0.65917507  0.13091514  0.03904981     0.14100
C1633       C  0.88061131  0.14359199  0.04968772    -0.15500
C1634       C  0.85823225  0.16266024  0.06455450    -0.30700
H1635       H  0.87409543  0.11373244  0.04517921     0.13500
H1636       H  0.86446870  0.19270584  0.06879532     0.14100
C1637       C  0.64764111  0.34159176  0.06620559    -0.15500
C1638       C  0.62616597  0.35911602  0.05016685    -0.30700
H1639       H  0.64033746  0.31243231  0.07175826     0.13500
H1640       H  0.63382423  0.38814434  0.04453154     0.14100
C1641       C  0.84966767  0.36148520  0.05643495    -0.15500
C1642       C  0.87514948  0.33481927  0.06311011    -0.30700
H1643       H  0.84981287  0.37267382  0.03903700     0.13500
H1644       H  0.87243050  0.32243001  0.08018096     0.14100
C1645       C  0.62410101  0.35950212  0.93069194    -0.15500
C1646       C  0.65304968  0.38107963  0.93948818    -0.30700
H1647       H  0.62514951  0.35161538  0.91265343     0.13500
H1648       H  0.65477131  0.38581563  0.95787625     0.14100
C1649       C  0.88373034  0.34979236  0.93276108    -0.15500
C1650       C  0.85759893  0.37520485  0.94041028    -0.30700
H1651       H  0.88161739  0.33956926  0.91516017     0.13500
H1652       H  0.85720248  0.38356000  0.95836678     0.14100
C1653       C  0.63715863  0.15797723  0.93156529    -0.15500
C1654       C  0.66039948  0.12980576  0.93910964    -0.30700
H1655       H  0.64164552  0.16950598  0.91441615     0.13500
H1656       H  0.65850392  0.11952695  0.95667224     0.14100
C1657       C  0.89110258  0.15207669  0.93052112    -0.15500
C1658       C  0.86455620  0.12684421  0.93846626    -0.30700
H1659       H  0.88830402  0.16265683  0.91304405     0.13500
H1660       H  0.86451306  0.11855776  0.95642942     0.14100
C1661       C  0.88932924  0.41552221  0.17353809    -0.15500
C1662       C  0.85538899  0.43283962  0.16857271    -0.30700
H1663       H  0.89794908  0.38968238  0.16434905     0.13500
H1664       H  0.84684152  0.45783139  0.17861473     0.14100
C1665       C  0.62250356  0.40981094  0.17789032    -0.15500
C1666       C  0.65682997  0.42695270  0.17308875    -0.30700
H1667       H  0.61297086  0.38411542  0.16867995     0.13500
H1668       H  0.66632336  0.45168891  0.18322645     0.14100
C1669       C  0.88936340  0.10064945  0.17878598    -0.15500
C1670       C  0.85428539  0.08484170  0.17418602    -0.30700
H1671       H  0.89935664  0.12624437  0.16969512     0.13500
H1672       H  0.84431327  0.06037337  0.18435435     0.14100
C1673       C  0.65703468  0.07946403  0.17117433    -0.15500
C1674       C  0.62276083  0.09589511  0.17609316    -0.30700
H1675       H  0.66657438  0.05485956  0.18123675     0.13500
H1676       H  0.61332712  0.12146415  0.16692100     0.14100
C1677       C  0.59944804  0.12630023  0.69052914    -0.15500
C1678       C  0.57748141  0.14314753  0.67435038    -0.30700
H1679       H  0.62758333  0.13835051  0.69503006     0.13500
H1680       H  0.54950634  0.13060542  0.66992343     0.14100
C1681       C  0.58043616  0.34405860  0.67902808    -0.15500
C1682       C  0.60215840  0.36505698  0.69371043    -0.30700
H1683       H  0.55070872  0.35232695  0.67566764     0.13500
H1684       H  0.63192762  0.35708603  0.69712431     0.14100
C1685       C  0.94134792  0.14300743  0.67352623    -0.15500
C1686       C  0.91905281  0.12606610  0.68965369    -0.30700
H1687       H  0.96930411  0.13070201  0.66946209     0.13500
H1688       H  0.89092887  0.13784902  0.69385108     0.14100
C1689       C  0.93232461  0.34380440  0.67830708    -0.15500
C1690       C  0.91021536  0.36411576  0.69286969    -0.30700
H1691       H  0.96212187  0.35270598  0.67529490     0.13500
H1692       H  0.88041633  0.35548680  0.69602704     0.14100
C1693       C  0.85759006  0.11549466  0.56969971    -0.15500
C1694       C  0.87693789  0.14662290  0.56194931    -0.30700
H1695       H  0.85004472  0.11416673  0.58777986     0.13500
H1696       H  0.88142727  0.15061726  0.54366868     0.14100
C1697       C  0.84312789  0.34653936  0.57215903    -0.15500
C1698       C  0.85945820  0.36623531  0.55476933    -0.30700
H1699       H  0.81541553  0.35554816  0.57897449     0.13500
H1700       H  0.88760615  0.35777530  0.54833801     0.14100
C1701       C  0.67078787  0.12080738  0.57154750    -0.15500
C1702       C  0.64750876  0.14898641  0.56419678    -0.30700
H1703       H  0.68136427  0.12165525  0.58912106     0.13500
H1704       H  0.63889247  0.15061966  0.54630423     0.14100
C1705       C  0.67260886  0.35004565  0.57421650    -0.15500
C1706       C  0.65650399  0.36870113  0.55647373    -0.30700
H1707       H  0.70028665  0.35965984  0.58111256     0.13500
H1708       H  0.62843675  0.35953509  0.54992922     0.14100
C1709       C  0.59112271  0.15244006  0.32369723    -0.15500
C1710       C  0.60809845  0.11876945  0.31788504    -0.30700
H1711       H  0.56396331  0.16006620  0.31552686     0.13500
H1712       H  0.63568265  0.11071089  0.32532682     0.14100
C1713       C  0.60438429  0.38618423  0.31650323    -0.15500
C1714       C  0.58790939  0.35173069  0.32160783    -0.30700
H1715       H  0.63152845  0.39500299  0.32442332     0.13500
H1716       H  0.56140079  0.34297939  0.31291096     0.14100
C1717       C  0.68583681  0.15755138  0.42936331    -0.15500
C1718       C  0.66622465  0.13973009  0.44630919    -0.30700
H1719       H  0.71470288  0.14809494  0.42480481     0.13500
H1720       H  0.63755105  0.14944847  0.45105290     0.14100
C1721       C  0.66155448  0.37950674  0.44151554    -0.15500
C1722       C  0.68318344  0.36002377  0.42637247    -0.30700
H1723       H  0.63233355  0.36974875  0.44540445     0.13500
H1724       H  0.71284931  0.36897836  0.42300988     0.14100
C1725       C  0.93196941  0.15160558  0.32743506    -0.15500
C1726       C  0.91130168  0.12259456  0.31767717    -0.30700
H1727       H  0.96233033  0.15471610  0.32301338     0.13500
H1728       H  0.88079840  0.11877319  0.32153962     0.14100
C1729       C  0.91277831  0.38847050  0.31787665    -0.15500
C1730       C  0.91015854  0.34958584  0.31575026    -0.30700
H1731       H  0.90574662  0.40306481  0.33375275     0.13500
H1732       H  0.91806719  0.33718397  0.29930404     0.14100
C1733       C  0.83695435  0.15891079  0.43376591    -0.15500
C1734       C  0.85859790  0.13461544  0.44628955    -0.30700
H1735       H  0.80568319  0.15538383  0.43343191     0.13500
H1736       H  0.88974066  0.13866091  0.44735280     0.14100
C1737       C  0.84529969  0.37613323  0.43958469    -0.15500
C1738       C  0.82405918  0.35930131  0.42291006    -0.30700
H1739       H  0.87281633  0.36378525  0.44462158     0.13500
H1740       H  0.79695581  0.37222619  0.41761011     0.14100
N1741       N  0.84316208  0.75504411  0.40595927    -0.35700
N1742       N  0.87474435  0.69456858  0.37682242    -0.56200
N1743       N  0.89167138  0.75226396  0.34186345    -0.35600
N1744       N  0.86268228  0.81323995  0.37156201    -0.56200
C1745       C  0.84146791  0.72502837  0.42078368     0.27900
C1746       C  0.83569159  0.78769908  0.41792476     0.27900
C1747       C  0.91316291  0.72203596  0.33453010     0.27900
C1748       C  0.90595591  0.78477193  0.33176021     0.27900
C1749       C  0.86055950  0.67207088  0.39387703     0.36500
C1750       C  0.88676503  0.67039594  0.36007902     0.36600
C1751       C  0.83820407  0.83323979  0.38499779     0.36500
C1752       C  0.86416750  0.83206461  0.35129716     0.36600
C1753       C  0.83213332  0.73865668  0.44242786    -0.20900
C1754       C  0.82868435  0.77823177  0.44065670    -0.20900
C1755       C  0.94124591  0.73559773  0.31946110    -0.20900
C1756       C  0.93697062  0.77501494  0.31791679    -0.20900
C1757       C  0.86410630  0.63338633  0.38808758    -0.22000
C1758       C  0.88109471  0.63228258  0.36690872    -0.22000
C1759       C  0.82397867  0.86489619  0.37321059    -0.22000
C1760       C  0.83975136  0.86362211  0.35165995    -0.22000
C1761       C  0.84599197  0.68553770  0.41508897    -0.17300
C1762       C  0.83113695  0.82498065  0.40829386    -0.17300
C1763       C  0.88995768  0.82243361  0.33350601    -0.17300
C1764       C  0.90666588  0.68239390  0.34003516    -0.17300
H1765       H  0.82780492  0.72178736  0.45785696     0.15600
H1766       H  0.82060130  0.79755367  0.45440416     0.15600
H1767       H  0.96284088  0.71912648  0.31041867     0.15600
H1768       H  0.95479447  0.79413083  0.30762383     0.15600
H1769       H  0.85634073  0.60839596  0.39832531     0.13900
H1770       H  0.88946556  0.60607311  0.35822083     0.13900
H1771       H  0.80401826  0.88645861  0.37935572     0.13900
H1772       H  0.83378944  0.88371264  0.33791508     0.13900
H1773       H  0.84503641  0.75288255  0.38828620     0.27100
H1774       H  0.86599924  0.75024544  0.35108217     0.27100
N1775       N  0.63755063  0.69475850  0.37859068    -0.35700
N1776       N  0.66261864  0.75640638  0.40943445    -0.56200
N1777       N  0.63840054  0.81368190  0.37567394    -0.35600
N1778       N  0.61002519  0.75224455  0.34618685    -0.56200
C1779       C  0.64384961  0.67452077  0.39808766     0.27900
C1780       C  0.61648901  0.67183875  0.36434293     0.27900
C1781       C  0.64432672  0.83611108  0.39438487     0.27900
C1782       C  0.61656712  0.83424761  0.36083054     0.27900
C1783       C  0.67884777  0.72581361  0.42006020     0.36500
C1784       C  0.67949292  0.78848543  0.41838377     0.36600
C1785       C  0.60538659  0.71997589  0.33328891     0.36500
C1786       C  0.60552678  0.78266995  0.33184951     0.36600
C1787       C  0.62694241  0.63809102  0.39606719    -0.20900
C1788       C  0.60940133  0.63653848  0.37487733    -0.20900
C1789       C  0.62636923  0.87146906  0.39126394    -0.20900
C1790       C  0.60843946  0.87007581  0.37025817    -0.20900
C1791       C  0.70589976  0.73852153  0.43603626    -0.22000
C1792       C  0.70630729  0.77830008  0.43496927    -0.22000
C1793       C  0.59795325  0.73002395  0.31068716    -0.22000
C1794       C  0.59805595  0.76965333  0.30977961    -0.22000
C1795       C  0.66744381  0.68685155  0.41663876    -0.17300
C1796       C  0.60475726  0.68161655  0.34181795    -0.17300
C1797       C  0.60513316  0.82194791  0.33868163    -0.17300
C1798       C  0.66832019  0.82668215  0.41318687    -0.17300
H1799       H  0.62738203  0.61479813  0.40843890     0.15600
H1800       H  0.59349919  0.61201576  0.36801373     0.15600
H1801       H  0.62616873  0.89599623  0.40277141     0.15600
H1802       H  0.59147749  0.89305024  0.36283920     0.15600
H1803       H  0.72308992  0.72101840  0.44749879     0.13900
H1804       H  0.72380224  0.79750768  0.44547190     0.13900
H1805       H  0.59265915  0.71080832  0.29633307     0.13900
H1806       H  0.59287487  0.78686837  0.29460396     0.13900
H1807       H  0.65066044  0.72089213  0.37422583     0.27100
H1808       H  0.65227699  0.78779798  0.37215323     0.27100
N1809       N  0.82797033  0.95897573  0.47175407    -0.05200
N1810       N  0.84746981  0.92680864  0.46798286    -0.57300
N1811       N  0.80276352  0.55150226  0.46196612    -0.04800
N1812       N  0.80530407  0.58271930  0.44919020    -0.59400
N1813       N  0.83102389  0.55046726  0.47705795    -0.04400
N1814       N  0.85392933  0.58120405  0.47451641    -0.57300
N1815       N  0.79989439  0.96230350  0.45666032    -0.04100
N1816       N  0.79958124  0.93272656  0.44239869    -0.59800
C1817       C  0.82932275  0.91082208  0.44960716     0.97000
C1818       C  0.83710087  0.60116099  0.45713226     0.96800
N1819       N  0.68700492  0.55253465  0.47875847    -0.05400
N1820       N  0.66504586  0.58362553  0.47682640    -0.57900
N1821       N  0.71054136  0.96533420  0.45770608    -0.03500
N1822       N  0.70766665  0.93522492  0.44391956    -0.59100
N1823       N  0.68311386  0.96429656  0.47329541    -0.05400
N1824       N  0.66082344  0.93333669  0.47032428    -0.58100
N1825       N  0.71415078  0.55311705  0.46300906    -0.03100
N1826       N  0.71172067  0.58447154  0.45032413    -0.59200
Mn1827     Mn  0.75733632  0.50772696  0.45977287     1.18400
C1828       C  0.68116772  0.60339049  0.45906942     0.99100
C1829       C  0.67662624  0.91553764  0.45194728     0.99800
N1830       N  0.83205790  0.54244966  0.53155378    -0.05400
N1831       N  0.85409771  0.57304678  0.53639972    -0.61700
N1832       N  0.80243527  0.94944805  0.54059308    -0.04200
N1833       N  0.80553060  0.91765402  0.55286082    -0.62400
N1834       N  0.82983984  0.95132565  0.52503328    -0.04900
N1835       N  0.85219714  0.92053541  0.52637599    -0.62000
N1836       N  0.80566731  0.53763939  0.54756551    -0.03800
N1837       N  0.80921234  0.56424977  0.56357038    -0.62700
Mn1838     Mn  0.83309701  0.50168312  0.50197599     1.10700
C1839       C  0.83917149  0.58621939  0.55645190     1.00300
C1840       C  0.83654704  0.89979421  0.54379961     1.00400
N1841       N  0.68419371  0.95636232  0.52649891    -0.04900
N1842       N  0.66008254  0.92646971  0.52791820    -0.60300
N1843       N  0.71650712  0.53862272  0.54846347    -0.04200
N1844       N  0.71473132  0.56524614  0.56454407    -0.57000
N1845       N  0.68938589  0.54385645  0.53294203    -0.05500
N1846       N  0.66865188  0.57465722  0.53813715    -0.59900
N1847       N  0.71251651  0.95256901  0.54137937    -0.04500
N1848       N  0.70843329  0.92036595  0.55318586    -0.57000
Mn1849     Mn  0.68451434  0.50366660  0.50348864     1.20200
Mn1850     Mn  0.76008842  0.49351530  0.54577877     1.10100
Cl1851     Cl  0.75877997  0.50166287  0.50277386    -0.85000
C1852       C  0.67575282  0.90427749  0.54461685     0.97300
C1853       C  0.68508111  0.58756427  0.55789040     0.97100
N1854       N  0.90032033  0.69079811  0.61972071    -0.35700
N1855       N  0.90848681  0.74685072  0.65641697    -0.56200
N1856       N  0.88300682  0.80635667  0.62503264    -0.35600
N1857       N  0.87708125  0.75023999  0.58747002    -0.56200
C1858       C  0.92016508  0.67004756  0.63544170     0.27900
C1859       C  0.90342128  0.67203358  0.59941771     0.27900
C1860       C  0.89840333  0.82877022  0.64188890     0.27900
C1861       C  0.87602795  0.82970123  0.60691346     0.27900
C1862       C  0.91565339  0.71475546  0.66884870     0.36500
C1863       C  0.91085123  0.77723221  0.67093727     0.36600
C1864       C  0.86906730  0.71866643  0.57454661     0.36500
C1865       C  0.85785538  0.77992982  0.57780603     0.36600
C1866       C  0.93612436  0.63788162  0.62489739    -0.20900
C1867       C  0.92569318  0.63926872  0.60219834    -0.20900
C1868       C  0.90058024  0.86686084  0.63437454    -0.20900
C1869       C  0.88616224  0.86747187  0.61242661    -0.20900
C1870       C  0.92220075  0.72474382  0.69157663    -0.22000
C1871       C  0.91947359  0.76440757  0.69285248    -0.22000
C1872       C  0.84540048  0.72849909  0.55628852    -0.22000
C1873       C  0.83828283  0.76741155  0.55836110    -0.22000
C1874       C  0.92214423  0.67778688  0.65928805    -0.17300
C1875       C  0.88311900  0.68124007  0.57907214    -0.17300
C1876       C  0.85878309  0.81838017  0.58595211    -0.17300
C1877       C  0.90967041  0.81641269  0.66409852    -0.17300
H1878       H  0.95307014  0.61526422  0.63271589     0.15600
H1879       H  0.93287849  0.61801655  0.58928654     0.15600
H1880       H  0.91104553  0.89184784  0.64380359     0.15600
H1881       H  0.88363295  0.89285401  0.60168034     0.15600
H1882       H  0.93031138  0.70578194  0.70550377     0.13900
H1883       H  0.92450334  0.78188651  0.70799364     0.13900
H1884       H  0.83413729  0.70962141  0.54299904     0.13900
H1885       H  0.82061111  0.78447234  0.54692547     0.13900
H1886       H  0.88134632  0.71314436  0.62326107     0.27100
H1887       H  0.87419953  0.77767965  0.62635236     0.27100
N1888       N  0.62786447  0.80711786  0.62272980    -0.35700
N1889       N  0.64068269  0.74982722  0.58723704    -0.56200
N1890       N  0.61915217  0.68994167  0.62041418    -0.35600
N1891       N  0.60412609  0.74735380  0.65507283    -0.56200
C1892       C  0.63508425  0.83007419  0.60442103     0.27900
C1893       C  0.61013990  0.82911539  0.63870953     0.27900
C1894       C  0.61862680  0.66990183  0.60046125     0.27900
C1895       C  0.59982535  0.66829644  0.63610733     0.27900
C1896       C  0.65861978  0.78029061  0.57720899     0.36500
C1897       C  0.65081422  0.71825270  0.57510102     0.36600
C1898       C  0.59981935  0.77847519  0.66881030     0.36500
C1899       C  0.59846893  0.71564592  0.66824269     0.36600
C1900       C  0.62250931  0.86725281  0.60889713    -0.20900
C1901       C  0.60640937  0.86658669  0.63040291    -0.20900
C1902       C  0.59884184  0.63522068  0.60349714    -0.20900
C1903       C  0.58715704  0.63409146  0.62595867    -0.20900
C1904       C  0.67946211  0.76821163  0.55828219    -0.22000
C1905       C  0.67442405  0.72879247  0.55690285    -0.22000
C1906       C  0.59140434  0.76649833  0.69094366    -0.22000
C1907       C  0.59075050  0.72666456  0.69061281    -0.22000
C1908       C  0.65495645  0.81900205  0.58438829    -0.17300
C1909       C  0.59924989  0.81724387  0.66108007    -0.17300
C1910       C  0.59479526  0.67756320  0.65958627    -0.17300
C1911       C  0.63871412  0.68015561  0.58018567    -0.17300
H1912       H  0.62473186  0.89231585  0.59784253     0.15600
H1913       H  0.59415899  0.89125530  0.63911325     0.15600
H1914       H  0.59390638  0.61269473  0.59089336     0.15600
H1915       H  0.57137673  0.61047187  0.63388967     0.15600
H1916       H  0.69639197  0.78593421  0.54666658     0.13900
H1917       H  0.68700229  0.71005156  0.54410894     0.13900
H1918       H  0.58519177  0.78453173  0.70563275     0.13900
H1919       H  0.58356776  0.70807747  0.70494094     0.13900
H1920       H  0.63843384  0.77941644  0.62504087     0.27100
H1921       H  0.63593116  0.71438271  0.62379374     0.27100
N1922       N  0.96028539  0.92961586  0.27437661    -0.05200
N1923       N  0.95456087  0.90202281  0.28952860    -0.57300
N1924       N  0.93149158  0.95937632  0.22435656    -0.04800
N1925       N  0.90431500  0.95541259  0.20870473    -0.59400
N1926       N  0.95796779  0.93251163  0.22203408    -0.04400
N1927       N  0.94828361  0.90880829  0.20500189    -0.57300
N1928       N  0.93526460  0.95771246  0.27711368    -0.04100
N1929       N  0.91157004  0.94935009  0.29431278    -0.59800
C1930       C  0.92431727  0.91453903  0.30187050     0.97000
C1931       C  0.91494432  0.92400176  0.19666476     0.96800
N1932       N  0.95971995  0.57656634  0.22090054    -0.05400
N1933       N  0.94958954  0.60061078  0.20418360    -0.57900
N1934       N  0.93715532  0.55171615  0.27580058    -0.03500
N1935       N  0.91241654  0.56181954  0.29203551    -0.59100
N1936       N  0.96388085  0.57880414  0.27345588    -0.05400
N1937       N  0.95889084  0.60681190  0.28841425    -0.58100
N1938       N  0.93234104  0.55030343  0.22381512    -0.03100
N1939       N  0.90393205  0.55516923  0.20919213    -0.59200
Mn1940     Mn  0.93285839  0.00428670  0.25088683     1.18400
C1941       C  0.91470877  0.58640466  0.19697758     0.99100
C1942       C  0.92690937  0.59597974  0.29999005     0.99800
N1943       N  0.55326622  0.93218017  0.22007185    -0.05400
N1944       N  0.56229542  0.90832058  0.20311233    -0.61700
N1945       N  0.57687766  0.95432685  0.27554750    -0.04200
N1946       N  0.60052015  0.94443130  0.29243481    -0.62400
N1947       N  0.55017689  0.92732544  0.27260576    -0.04900
N1948       N  0.55440624  0.89929401  0.28761997    -0.62000
N1949       N  0.58159387  0.95732204  0.22338937    -0.03800
N1950       N  0.61008990  0.95139022  0.20891555    -0.62700
Mn1951     Mn  0.50574687  0.92922949  0.24573064     1.10700
C1952       C  0.59783484  0.92094589  0.19636170     1.00300
C1953       C  0.58573659  0.91015591  0.29991832     1.00400
N1954       N  0.55242552  0.57928323  0.27354818    -0.04900
N1955       N  0.55632196  0.60618117  0.28935790    -0.60300
N1956       N  0.58251372  0.54844056  0.22397658    -0.04200
N1957       N  0.60976524  0.55126410  0.20842744    -0.57000
N1958       N  0.55588577  0.57482707  0.22076403    -0.05500
N1959       N  0.56529771  0.59691532  0.20295023    -0.59900
N1960       N  0.57796600  0.55174562  0.27651898    -0.04500
N1961       N  0.60065841  0.56022040  0.29424516    -0.57000
Mn1962     Mn  0.50854124  0.57866748  0.24643916     1.20200
Mn1963     Mn  0.58111318  0.00184041  0.25009315     1.10100
Cl1964     Cl  0.50746317  0.00285790  0.24829952    -0.85000
C1965       C  0.58630969  0.59414498  0.30222631     0.97300
C1966       C  0.59902263  0.58143958  0.19540460     0.97100
N1967       N  0.96601413  0.67188620  0.96657374    -0.05200
N1968       N  0.93755091  0.64730913  0.96156022    -0.57300
N1969       N  0.55951676  0.71491046  0.95510220    -0.04800
N1970       N  0.58863849  0.71328682  0.94063055    -0.59400
N1971       N  0.55965017  0.68493296  0.96900458    -0.04400
N1972       N  0.58937663  0.66237681  0.96428722    -0.57300
N1973       N  0.96712650  0.70019843  0.95150715    -0.04100
N1974       N  0.93985759  0.69553203  0.93594542    -0.59800
C1975       C  0.92155439  0.66271977  0.94239946     0.97000
C1976       C  0.60728569  0.68074727  0.94662899     0.96800
N1977       N  0.54746232  0.83122878  0.97589429    -0.05400
N1978       N  0.57504014  0.85802254  0.97491347    -0.57900
N1979       N  0.96070253  0.78995087  0.95429021    -0.03500
N1980       N  0.93442372  0.79442467  0.93817282    -0.59100
N1981       N  0.95565635  0.81519562  0.97091125    -0.05400
N1982       N  0.92571150  0.83751969  0.96633003    -0.58100
N1983       N  0.55238705  0.80532272  0.95966171    -0.03100
N1984       N  0.58303999  0.81384736  0.94727854    -0.59200
Mn1985     Mn  0.51249790  0.75674754  0.95466975     1.18400
C1986       C  0.59702865  0.84657908  0.95699866     0.99100
C1987       C  0.91273195  0.82387173  0.94588819     0.99800
N1988       N  0.55441262  0.67762581  0.02328716    -0.05400
N1989       N  0.58395294  0.65476020  0.02822547    -0.61700
N1990       N  0.96160203  0.69294554  0.03714929    -0.04200
N1991       N  0.93021224  0.68737460  0.04950093    -0.62400
N1992       N  0.96332099  0.66734111  0.02051631    -0.04900
N1993       N  0.93327318  0.64345782  0.02134343    -0.62000
N1994       N  0.55037098  0.70361747  0.03957242    -0.03800
N1995       N  0.57629628  0.69904889  0.05581308    -0.62700
Mn1996     Mn  0.51206791  0.67653925  0.99418271     1.10700
C1997       C  0.59725104  0.66889128  0.04858770     1.00300
C1998       C  0.91286023  0.65652852  0.03945484     1.00400
N1999       N  0.95149431  0.80993898  0.02563114    -0.04900
N2000       N  0.91916444  0.82921504  0.02963039    -0.60300
N2001       N  0.54482546  0.79324903  0.04274624    -0.04200
N2002       N  0.57574549  0.79568513  0.05593848    -0.57000
N2003       N  0.54301732  0.82315334  0.02886068    -0.05500
N2004       N  0.57285941  0.84666292  0.03236730    -0.59900
N2005       N  0.95486679  0.78135112  0.04035608    -0.04500
N2006       N  0.92509443  0.78008218  0.05432904    -0.57000
Mn2007     Mn  0.49981977  0.82464531  0.00088127     1.20200
Mn2008     Mn  0.50364558  0.74499388  0.04034866     1.10100
Cl2009     Cl  0.50695756  0.75067245  0.99749242    -0.85000
C2010       C  0.90300072  0.80980467  0.04754073     0.97300
C2011       C  0.59292802  0.82909647  0.04929828     0.97100
N2012       N  0.81493119  0.89328343  0.88298981    -0.35700
N2013       N  0.75715412  0.90454990  0.84771708    -0.56200
N2014       N  0.69762911  0.88720880  0.88046164    -0.35600
N2015       N  0.75500254  0.88106251  0.91727727    -0.56200
C2016       C  0.83653949  0.90995180  0.86630006     0.27900
C2017       C  0.83508951  0.89652681  0.90279444     0.27900
C2018       C  0.67645327  0.90266072  0.86327399     0.27900
C2019       C  0.67582988  0.88853179  0.89961111     0.27900
C2020       C  0.78914908  0.90340768  0.83454081     0.36500
C2021       C  0.72674942  0.90052606  0.83331228     0.36600
C2022       C  0.78614021  0.86934008  0.92935599     0.36500
C2023       C  0.72380549  0.86512303  0.92765504     0.36600
C2024       C  0.87052456  0.92461349  0.87575260    -0.20900
C2025       C  0.86978499  0.91570586  0.89875808    -0.20900
C2026       C  0.64112282  0.91475422  0.87183415    -0.20900
C2027       C  0.64044688  0.90503801  0.89469668    -0.20900
C2028       C  0.77903473  0.89857820  0.81167610    -0.22000
C2029       C  0.73945453  0.89674311  0.81090305    -0.22000
C2030       C  0.77461868  0.84687234  0.94785887    -0.22000
C2031       C  0.73497366  0.84413119  0.94674344    -0.22000
C2032       C  0.82707077  0.90997852  0.84265047    -0.17300
C2033       C  0.82472702  0.87878927  0.92376449    -0.17300
C2034       C  0.68537408  0.87060824  0.92046346    -0.17300
C2035       C  0.68777599  0.90380496  0.83996806    -0.17300
H2036       H  0.89374474  0.93971682  0.86701805     0.15600
H2037       H  0.89239287  0.92214906  0.91108806     0.15600
H2038       H  0.61793441  0.92874889  0.86265355     0.15600
H2039       H  0.61657563  0.90943293  0.90635538     0.15600
H2040       H  0.79812640  0.89692871  0.79702839     0.13900
H2041       H  0.72205570  0.89342144  0.79556517     0.13900
H2042       H  0.79284391  0.83341769  0.96062100     0.13900
H2043       H  0.71651184  0.82849125  0.95858085     0.13900
H2044       H  0.79034210  0.87617873  0.88052936     0.27100
H2045       H  0.72319489  0.87181965  0.87870967     0.27100
N2046       N  0.75992030  0.60911845  0.91659450    -0.35700
N2047       N  0.69928434  0.61032739  0.88087303    -0.56200
N2048       N  0.75701485  0.59629851  0.84651770    -0.35600
N2049       N  0.81760868  0.60059884  0.88044001    -0.56200
C2050       C  0.72998124  0.62473376  0.92816863     0.27900
C2051       C  0.79275343  0.61897449  0.92797043     0.27900
C2052       C  0.72569231  0.60355721  0.83340705     0.27900
C2053       C  0.78839679  0.60057852  0.83297152     0.27900
C2054       C  0.67826626  0.60754777  0.90030477     0.36500
C2055       C  0.67627754  0.59722275  0.86366263     0.36600
C2056       C  0.83918280  0.59407605  0.89933568     0.36500
C2057       C  0.83800929  0.58703515  0.86243873     0.36600
C2058       C  0.74380714  0.64383344  0.94748386    -0.20900
C2059       C  0.78347109  0.64020852  0.94735690    -0.20900
C2060       C  0.73723994  0.61300826  0.81133320    -0.20900
C2061       C  0.77691636  0.61123390  0.81106859    -0.20900
C2062       C  0.64174018  0.59289781  0.89549825    -0.22000
C2063       C  0.64070094  0.58560467  0.87233814    -0.22000
C2064       C  0.87338071  0.57611371  0.89339546    -0.22000
C2065       C  0.87246224  0.57122199  0.87000686    -0.22000
C2066       C  0.69055293  0.62120820  0.92197665    -0.17300
C2067       C  0.83069899  0.60905281  0.92126649    -0.17300
C2068       C  0.82650661  0.59107113  0.83927357    -0.17300
C2069       C  0.68710302  0.59730498  0.84024678    -0.17300
H2070       H  0.72712539  0.65908481  0.96024714     0.15600
H2071       H  0.80319032  0.65221484  0.95998413     0.15600
H2072       H  0.71890654  0.61950986  0.79679474     0.15600
H2073       H  0.79514299  0.61611154  0.79625812     0.15600
H2074       H  0.61846864  0.58762755  0.90751964     0.13900
H2075       H  0.61646119  0.57305925  0.86315013     0.13900
H2076       H  0.89674940  0.56797205  0.90473529     0.13900
H2077       H  0.89484119  0.55796683  0.85981480     0.13900
H2078       H  0.75779577  0.59059217  0.90256694     0.27100
H2079       H  0.75654197  0.58340991  0.86262880     0.27100
N2080       N  0.58005318  0.95057320  0.72380202    -0.05200
N2081       N  0.60220425  0.91979662  0.72130409    -0.57300
N2082       N  0.55399625  0.54092514  0.70644328    -0.04800
N2083       N  0.55622804  0.57112576  0.69273286    -0.59400
N2084       N  0.58104033  0.54257399  0.72230024    -0.04400
N2085       N  0.60257599  0.57416868  0.71950214    -0.57300
N2086       N  0.55235351  0.95021801  0.70834809    -0.04100
N2087       N  0.55481761  0.91945232  0.69512292    -0.59800
C2088       C  0.58591286  0.90062870  0.70337506     0.97000
C2089       C  0.58654535  0.59170088  0.70100027     0.96800
N2090       N  0.93187613  0.54164848  0.72072235    -0.05400
N2091       N  0.91057190  0.57293787  0.71778448    -0.57900
N2092       N  0.96167870  0.95023191  0.70988972    -0.03500
N2093       N  0.95736213  0.91941756  0.69678450    -0.59100
N2094       N  0.93428383  0.95156960  0.72544903    -0.05400
N2095       N  0.91044687  0.92156294  0.72310875    -0.58100
N2096       N  0.95889762  0.54008220  0.70492171    -0.03100
N2097       N  0.95683356  0.57007330  0.69108213    -0.59200
Mn2098     Mn  0.50846240  0.99495914  0.70693104     1.18400
C2099       C  0.92669172  0.59037065  0.69924506     0.99100
C2100       C  0.92545899  0.90164390  0.70522287     0.99800
N2101       N  0.58093625  0.54318318  0.77678809    -0.05400
N2102       N  0.60905840  0.56718059  0.78286190    -0.61700
N2103       N  0.55331630  0.95338360  0.79337541    -0.04200
N2104       N  0.56178715  0.92878416  0.80991902    -0.62400
N2105       N  0.58056888  0.95332836  0.77766697    -0.04900
N2106       N  0.60801011  0.92889723  0.78329915    -0.62000
N2107       N  0.55303340  0.54384908  0.79208758    -0.03800
N2108       N  0.56147928  0.56869300  0.80860075    -0.62700
Mn2109     Mn  0.58236392  0.99671712  0.75025450     1.10700
C2110       C  0.59643912  0.58327945  0.80265216     1.00300
C2111       C  0.59594578  0.91350948  0.80341489     1.00400
N2112       N  0.93531655  0.95679373  0.77962020    -0.04900
N2113       N  0.90726233  0.93323742  0.78619438    -0.60300
N2114       N  0.96066282  0.54632555  0.79026049    -0.04200
N2115       N  0.95192995  0.57075769  0.80680960    -0.57000
N2116       N  0.93242874  0.54434415  0.77511635    -0.05500
N2117       N  0.90388061  0.56710330  0.78134727    -0.59900
N2118       N  0.96294617  0.95771369  0.79515635    -0.04500
N2119       N  0.95423650  0.93461506  0.81245121    -0.57000
Mn2120     Mn  0.93415236  0.99876869  0.75121933     1.20200
Mn2121     Mn  0.50826631  0.99812707  0.79350172     1.10100
Cl2122     Cl  0.50825822  0.99694336  0.75025201    -0.85000
C2123       C  0.91943708  0.91935635  0.80667101     0.97300
C2124       C  0.91643677  0.58364439  0.80112331     0.97100
N2125       N  0.75673687  0.59737257  0.14909885    -0.35700
N2126       N  0.81559519  0.61570778  0.11650217    -0.56200
N2127       N  0.75650249  0.62072337  0.08005901    -0.35600
N2128       N  0.69703347  0.60697689  0.11431554    -0.56200
C2129       C  0.78786019  0.60120127  0.16309937     0.27900
C2130       C  0.72476100  0.59947647  0.16235781     0.27900
C2131       C  0.78671359  0.63985282  0.07047819     0.27900
C2132       C  0.72430910  0.63130514  0.06851559     0.27900
C2133       C  0.83872763  0.60222495  0.13334601     0.36500
C2134       C  0.83773041  0.61857300  0.09759311     0.36600
C2135       C  0.67542278  0.59204793  0.13152485     0.36500
C2136       C  0.67612402  0.60229687  0.09488057     0.36600
C2137       C  0.77552855  0.60580402  0.18553190    -0.20900
C2138       C  0.73573557  0.60490975  0.18506179    -0.20900
C2139       C  0.77374014  0.66213766  0.05230669    -0.20900
C2140       C  0.73429496  0.65664752  0.05101863    -0.20900
C2141       C  0.87563481  0.59596129  0.12498366    -0.22000
C2142       C  0.87518159  0.60707536  0.10240472    -0.22000
C2143       C  0.64074927  0.57758507  0.12297321    -0.22000
C2144       C  0.64116608  0.58418678  0.09973864    -0.22000
C2145       C  0.82701611  0.59787878  0.15636159    -0.17300
C2146       C  0.68629839  0.59248291  0.15489458    -0.17300
C2147       C  0.68628007  0.61858855  0.07345077    -0.17300
C2148       C  0.82579635  0.63621286  0.07708245    -0.17300
H2149       H  0.79337327  0.60903378  0.20069994     0.15600
H2150       H  0.71701472  0.60705591  0.19985597     0.15600
H2151       H  0.79089877  0.68042412  0.04112206     0.15600
H2152       H  0.71513118  0.67026884  0.03881625     0.15600
H2153       H  0.90054061  0.58519951  0.13412683     0.13900
H2154       H  0.89970125  0.60697484  0.09090223     0.13900
H2155       H  0.61751288  0.56382379  0.13243188     0.13900
H2156       H  0.61813824  0.57708156  0.08781576     0.13900
H2157       H  0.75732951  0.58839651  0.13210031     0.27100
H2158       H  0.75810035  0.59945327  0.09264465     0.27100
N2159       N  0.75233345  0.85593539  0.08722459    -0.35700
N2160       N  0.69672482  0.86608505  0.12421828    -0.56200
N2161       N  0.75894088  0.89266010  0.15406773    -0.35600
N2162       N  0.81412668  0.88511156  0.11658012    -0.56200
C2163       C  0.71892597  0.84824700  0.07592161     0.27900
C2164       C  0.78067966  0.85976114  0.07141147     0.27900
C2165       C  0.72712705  0.90461449  0.16565405     0.27900
C2166       C  0.78971054  0.91315664  0.16219085     0.27900
C2167       C  0.67626199  0.84257201  0.11013390     0.36500
C2168       C  0.67857504  0.86519906  0.14470944     0.36600
C2169       C  0.83548218  0.87573570  0.09800279     0.36500
C2170       C  0.83942063  0.89411819  0.13356170     0.36600
C2171       C  0.72611005  0.84705401  0.05253636    -0.20900
C2172       C  0.76512407  0.85422568  0.04969927    -0.20900
C2173       C  0.73798861  0.93300408  0.18128121    -0.20900
C2174       C  0.77730489  0.93798257  0.17933478    -0.20900
C2175       C  0.64502056  0.82657087  0.12176318    -0.22000
C2176       C  0.64687180  0.84043394  0.14377971    -0.22000
C2177       C  0.87451228  0.87991439  0.10306878    -0.22000
C2178       C  0.87700278  0.89157276  0.12548168    -0.22000
C2179       C  0.68333714  0.83827205  0.08645164    -0.17300
C2180       C  0.82057847  0.86456774  0.07624679    -0.17300
C2181       C  0.82887143  0.90886860  0.15529960    -0.17300
C2182       C  0.68907739  0.88891707  0.16346341    -0.17300
H2183       H  0.70571655  0.84043069  0.03895850     0.15600
H2184       H  0.78043538  0.85444161  0.03352758     0.15600
H2185       H  0.71970547  0.94871432  0.19300689     0.15600
H2186       H  0.79446263  0.95804224  0.18942244     0.15600
H2187       H  0.62307142  0.80703198  0.11510883     0.13900
H2188       H  0.62706985  0.83302632  0.15746427     0.13900
H2189       H  0.89883314  0.87580290  0.09170378     0.13900
H2190       H  0.90362256  0.89857268  0.13436856     0.13900
H2191       H  0.75634245  0.85359585  0.10478199     0.27100
H2192       H  0.76034942  0.86903497  0.14304969     0.27100
C2193       C  0.62293869  0.59944706  0.82010040    -0.15500
C2194       C  0.65928768  0.58643464  0.82174889    -0.30700
H2195       H  0.61153367  0.61911708  0.83287123     0.13500
H2196       H  0.66984765  0.56677049  0.80866131     0.14100
C2197       C  0.88974019  0.59690462  0.81905568    -0.15500
C2198       C  0.85369951  0.58232010  0.82031598    -0.30700
H2199       H  0.90091381  0.61542248  0.83263652     0.13500
H2200       H  0.84298607  0.56366409  0.80664475     0.14100
C2201       C  0.65937516  0.91322024  0.82164730    -0.15500
C2202       C  0.62332300  0.89846539  0.82047373    -0.30700
H2203       H  0.66884483  0.93357176  0.80855150     0.13500
H2204       H  0.61282243  0.87838744  0.83339690     0.14100
C2205       C  0.85648082  0.92082358  0.82521242    -0.15500
C2206       C  0.89217842  0.90597433  0.82436691    -0.30700
H2207       H  0.84753680  0.94091988  0.81192157     0.13500
H2208       H  0.90216941  0.88628388  0.83756546     0.14100
C2209       C  0.62640047  0.65155261  0.06371419    -0.15500
C2210       C  0.65493681  0.62834217  0.05686817    -0.30700
H2211       H  0.62614884  0.66129256  0.08145434     0.13500
H2212       H  0.65810327  0.62116612  0.03883653     0.14100
C2213       C  0.87701555  0.63855389  0.04794821    -0.15500
C2214       C  0.85595034  0.65660596  0.06385384    -0.30700
H2215       H  0.86913995  0.60956851  0.04230307     0.13500
H2216       H  0.86389643  0.68555839  0.06955210     0.14100
C2217       C  0.65153429  0.82162028  0.07245367    -0.15500
C2218       C  0.62951655  0.84395659  0.05899344    -0.30700
H2219       H  0.64295399  0.79183797  0.07583606     0.13500
H2220       H  0.63770011  0.87392323  0.05588625     0.14100
C2221       C  0.84894628  0.85384413  0.05818203    -0.15500
C2222       C  0.86898881  0.82118946  0.06099155    -0.30700
H2223       H  0.85476589  0.87330326  0.04396677     0.13500
H2224       H  0.86184265  0.80267441  0.07549207     0.14100
C2225       C  0.63139214  0.86737539  0.94835380    -0.15500
C2226       C  0.65382686  0.85037852  0.93263518    -0.30700
H2227       H  0.63761300  0.89665881  0.95414296     0.13500
H2228       H  0.64768350  0.82091840  0.92711405     0.14100
C2229       C  0.88269777  0.84149015  0.93158766    -0.15500
C2230       C  0.85609132  0.86610443  0.93944438    -0.30700
H2231       H  0.88128400  0.83217057  0.91378893     0.13500
H2232       H  0.85494225  0.87342245  0.95754989     0.14100
C2233       C  0.63725154  0.66401845  0.93186277    -0.15500
C2234       C  0.66064896  0.63521598  0.93823604    -0.30700
H2235       H  0.64087130  0.67680357  0.91495715     0.13500
H2236       H  0.65972208  0.62396096  0.95561444     0.14100
C2237       C  0.89007257  0.64573917  0.92859473    -0.15500
C2238       C  0.86370855  0.62026654  0.93643138    -0.30700
H2239       H  0.88693397  0.65693639  0.91127389     0.13500
H2240       H  0.86401975  0.61123271  0.95426796     0.14100
C2241       C  0.88943570  0.90590786  0.17918302    -0.15500
C2242       C  0.85939862  0.92591313  0.17050050    -0.30700
H2243       H  0.89416911  0.87605870  0.17418287     0.13500
H2244       H  0.85555002  0.95571696  0.17585366     0.14100
C2245       C  0.62179243  0.90345655  0.17826676    -0.15500
C2246       C  0.66013047  0.89869482  0.18172733    -0.30700
H2247       H  0.60839131  0.89782501  0.16177473     0.13500
H2248       H  0.67130680  0.90508284  0.19875207     0.14100
C2249       C  0.88983860  0.60250988  0.17863786    -0.15500
C2250       C  0.85512356  0.58561155  0.17426670    -0.30700
H2251       H  0.89958255  0.62753449  0.16892242     0.13500
H2252       H  0.84537511  0.56177940  0.18501911     0.14100
C2253       C  0.65815230  0.57985480  0.17264976    -0.15500
C2254       C  0.62345285  0.59625408  0.17645759    -0.30700
H2255       H  0.66802427  0.55695754  0.18394277     0.13500
H2256       H  0.61371149  0.62032978  0.16605717     0.14100
C2257       C  0.60082845  0.62795395  0.69031445    -0.15500
C2258       C  0.57913726  0.64645103  0.67464417    -0.30700
H2259       H  0.62974295  0.63844240  0.69439309     0.13500
H2260       H  0.55033104  0.63552340  0.67061398     0.14100
C2261       C  0.58183276  0.84706331  0.67602403    -0.15500
C2262       C  0.60185535  0.86560315  0.69254209    -0.30700
H2263       H  0.55326655  0.85710424  0.67117375     0.13500
H2264       H  0.63068380  0.85614106  0.69720425     0.14100
C2265       C  0.93661861  0.64625019  0.67416222    -0.15500
C2266       C  0.91371266  0.62712663  0.68902807    -0.30700
H2267       H  0.96542325  0.63550340  0.67060817     0.13500
H2268       H  0.88482686  0.63748604  0.69272913     0.14100
C2269       C  0.92771530  0.84599282  0.67930342    -0.15500
C2270       C  0.90772985  0.86676355  0.69467695    -0.30700
H2271       H  0.95753172  0.85384969  0.67550521     0.13500
H2272       H  0.87789478  0.85922345  0.69857676     0.14100
C2273       C  0.85435038  0.61800454  0.57070614    -0.15500
C2274       C  0.87347874  0.64918320  0.56279576    -0.30700
H2275       H  0.84647102  0.61707277  0.58874497     0.13500
H2276       H  0.87849293  0.65272641  0.54453223     0.14100
C2277       C  0.83885499  0.84889607  0.57280796    -0.15500
C2278       C  0.85403057  0.86492778  0.55385050    -0.30700
H2279       H  0.81335946  0.86132774  0.58067120     0.13500
H2280       H  0.88054193  0.85367731  0.54656310     0.14100
C2281       C  0.67135998  0.61955269  0.57210540    -0.15500
C2282       C  0.64969266  0.64858790  0.56422812    -0.30700
H2283       H  0.68094356  0.62003373  0.58987962     0.13500
H2284       H  0.64243464  0.65054931  0.54613477     0.14100
C2285       C  0.67488838  0.84987639  0.57131416    -0.15500
C2286       C  0.65761340  0.86908955  0.55417769    -0.30700
H2287       H  0.70305315  0.85919536  0.57764347     0.13500
H2288       H  0.62915055  0.86013881  0.54816406     0.14100
C2289       C  0.58669241  0.65168320  0.32673140    -0.15500
C2290       C  0.60394249  0.61848798  0.32044392    -0.30700
H2291       H  0.55945218  0.65951039  0.31871270     0.13500
H2292       H  0.63164255  0.61047844  0.32775102     0.14100
C2293       C  0.60403928  0.88479023  0.31712561    -0.15500
C2294       C  0.58788889  0.85024345  0.32239467    -0.30700
H2295       H  0.63101240  0.89396618  0.32510620     0.13500
H2296       H  0.56161518  0.84110129  0.31358391     0.14100
C2297       C  0.68459549  0.65665330  0.43147907    -0.15500
C2298       C  0.66475824  0.63814794  0.44810985    -0.30700
H2299       H  0.71395410  0.64806634  0.42743221     0.13500
H2300       H  0.63573436  0.64719517  0.45258110     0.14100
C2301       C  0.66249436  0.87881303  0.44202709    -0.15500
C2302       C  0.68426844  0.85901491  0.42707765    -0.30700
H2303       H  0.63334817  0.86893456  0.44601156     0.13500
H2304       H  0.71382315  0.86815689  0.42358039     0.14100
C2305       C  0.92561634  0.65271106  0.32531020    -0.15500
C2306       C  0.90666877  0.62240779  0.31574296    -0.30700
H2307       H  0.95610082  0.65682796  0.32148934     0.13500
H2308       H  0.87610251  0.61759774  0.31904466     0.14100
C2309       C  0.90550519  0.89024960  0.31942076    -0.15500
C2310       C  0.90167345  0.85176808  0.31582786    -0.30700
H2311       H  0.89798180  0.90359350  0.33559990     0.13500
H2312       H  0.91013060  0.84073476  0.29913735     0.14100
C2313       C  0.83059968  0.65615015  0.43125641    -0.15500
C2314       C  0.85296421  0.63622138  0.44595074    -0.30700
H2315       H  0.80031631  0.64822573  0.42907829     0.13500
H2316       H  0.88312267  0.64421796  0.44847462     0.14100
C2317       C  0.84023315  0.87399165  0.43870598    -0.15500
C2318       C  0.81734124  0.85727533  0.42278703    -0.30700
H2319       H  0.86794538  0.86130825  0.44300905     0.13500
H2320       H  0.78996005  0.87042723  0.41825879     0.14100
loop_ 
_geom_bond_atom_site_label_1 
_geom_bond_atom_site_label_2 
_geom_bond_distance 
_geom_bond_site_symmetry_2 
_ccdc_geom_bond_type 
N1            C6   1.354       .  A
N1            C5   1.352       .  A
N1           H33   1.037       .  S
N2            C9   1.354       .  A
N2           C10   1.355       .  A
N3            C8   1.359       .  A
N3            C7   1.358       .  A
N3           H34   1.039       .  S
N4           C11   1.351       .  A
N4           C12   1.352       .  A
C5           C13   1.387       .  A
C5           C21   1.415       .  A
C6           C22   1.416       .  A
C6           C14   1.388       .  A
C7           C15   1.389       .  A
C7           C24   1.425       .  A
C8           C23   1.424       .  A
C8           C16   1.388       .  A
C9           C21   1.418       .  A
C9           C17   1.385       .  A
C10          C24   1.420       .  A
C10          C18   1.388       .  A
C11          C19   1.386       .  A
C11          C22   1.411       .  A
C12          C20   1.386       .  A
C12          C23   1.414       .  A
C13          C14   1.379       .  A
C13          H25   1.082       .  S
C14          H26   1.082       .  S
C15          C16   1.374       .  A
C15          H27   1.081       .  S
C16          H28   1.082       .  S
C17          C18   1.370       .  A
C17          H29   1.082       .  S
C18          H30   1.080       .  S
C19          C20   1.372       .  A
C19          H31   1.082       .  S
C20          H32   1.081       .  S
C21         C573   1.486       .  S
C22         C578   1.483       .  S
C23         C570   1.502       .  S
C24         C565   1.499       .  S
N35          C40   1.353       .  A
N35          C39   1.353       .  A
N35          H67   1.039       .  S
N36          C43   1.352       .  A
N36          C44   1.352       .  A
N37          C42   1.353       .  A
N37          C41   1.352       .  A
N37          H68   1.039       .  S
N38          C45   1.353       .  A
N38          C46   1.353       .  A
C39          C47   1.388       .  A
C39          C55   1.416       .  A
C40          C56   1.415       .  A
C40          C48   1.386       .  A
C41          C49   1.389       .  A
C41          C58   1.414       .  A
C42          C57   1.414       .  A
C42          C50   1.386       .  A
C43          C55   1.413       .  A
C43          C51   1.387       .  A
C44          C58   1.412       .  A
C44          C52   1.387       .  A
C45          C53   1.387       .  A
C45          C56   1.415       .  A
C46          C54   1.386       .  A
C46          C57   1.414       .  A
C47          C48   1.375       .  A
C47          H59   1.081       .  S
C48          H60   1.082       .  S
C49          C50   1.372       .  A
C49          H61   1.081       .  S
C50          H62   1.082       .  S
C51          C52   1.376       .  A
C51          H63   1.082       .  S
C52          H64   1.083       .  S
C53          C54   1.369       .  A
C53          H65   1.082       .  S
C54          H66   1.082       .  S
C55         C557   1.483       .  S
C56         C549   1.487       .  S
C57         C554   1.490       .  S
C58         C562   1.479       .  S
N69          N70   1.324       .  A
N69          N75   1.315       .  A
N69        Mn678   2.212       .  S
N70          C77   1.355       .  A
N71          N73   1.316       .  A
N71          N72   1.317       .  A
N71         Mn87   2.195       .  S
N72          C78   1.350       .  A
N73          N74   1.325       .  A
N73         Mn98   2.220       .  S
N74          C78   1.357       .  A
N75          N76   1.317       .  A
N75        Mn667   2.189       .  S
N76          C77   1.350       .  A
C77         C577   1.475       .  S
C78         C574   1.478       .  S
N79          N85   1.315       .  A
N79          N80   1.325       .  A
N79        Mn109   2.217       .  S
N80          C88   1.357       .  A
N81          N82   1.317       .  A
N81          N83   1.315       .  A
N81        Mn667   2.185       .  S
N82          C89   1.350       .  A
N83          N84   1.322       .  A
N83        Mn689   2.206       .  S
N84          C89   1.353       .  A
N85          N86   1.316       .  A
N85         Mn87   2.185       .  S
N86          C88   1.349       .  A
Mn87        N655   2.191   1_545  S
Mn87        N661   2.197   1_545  S
Mn87       Cl111   2.518       .  S
C88         C558   1.476       .  S
C89         C561   1.470       .  S
N90          N91   1.326       .  A
N90          N96   1.316       .  A
N90         Mn98   2.222       .  S
N91          C99   1.359       .  A
N92          N94   1.316       .  A
N92          N93   1.319       .  A
N92        Mn690   2.192       .  S
N93         C100   1.352       .  A
N94          N95   1.324       .  A
N94        Mn678   2.220       .  S
N95         C100   1.355       .  A
N96          N97   1.314       .  A
N96        Mn110   2.178   1_545  S
N97          C99   1.344       .  A
Mn98        N649   2.207   1_545  S
Mn98        N674   2.212   1_545  S
Mn98       Cl111   2.567       .  S
C99         C533   1.467       .  S
C100        C538   1.478       .  S
N101        N102   1.323       .  A
N101        N107   1.315       .  A
N101       Mn689   2.211       .  S
N102        C112   1.353       .  A
N103        N104   1.316       .  A
N103        N105   1.316       .  A
N103       Mn110   2.195   1_545  S
N104        C113   1.347       .  A
N105        N106   1.325       .  A
N105       Mn109   2.216       .  S
N106        C113   1.357       .  A
N107        N108   1.318       .  A
N107       Mn690   2.190       .  S
N108        C112   1.352       .  A
Mn109       N663   2.205   1_545  S
Mn109       N681   2.208   1_545  S
Mn109      Cl111   2.569       .  S
Mn110       N672   2.193       .  S
Mn110       N687   2.183       .  S
Mn110      Cl111   2.524   1_565  S
C112        C546   1.475       .  S
C113        C541   1.469       .  S
N114        C119   1.354       .  A
N114        C118   1.355       .  A
N114        H146   1.039       .  S
N115        C122   1.351       .  A
N115        C123   1.350       .  A
N116        C121   1.353       .  A
N116        C120   1.354       .  A
N116        H147   1.038       .  S
N117        C124   1.351       .  A
N117        C125   1.352       .  A
C118        C126   1.388       .  A
C118        C134   1.418       .  A
C119        C135   1.418       .  A
C119        C127   1.386       .  A
C120        C128   1.390       .  A
C120        C137   1.417       .  A
C121        C136   1.411       .  A
C121        C129   1.385       .  A
C122        C134   1.413       .  A
C122        C130   1.387       .  A
C123        C137   1.412       .  A
C123        C131   1.386       .  A
C124        C132   1.387       .  A
C124        C135   1.412       .  A
C125        C133   1.385       .  A
C125        C136   1.410       .  A
C126        C127   1.373       .  A
C126        H138   1.082       .  S
C127        H139   1.082       .  S
C128        C129   1.374       .  A
C128        H140   1.082       .  S
C129        H141   1.082       .  S
C130        C131   1.376       .  A
C130        H142   1.082       .  S
C131        H143   1.082       .  S
C132        C133   1.375       .  A
C132        H144   1.082       .  S
C133        H145   1.082       .  S
C134        C525   1.487       .  S
C135        C534   1.490       .  S
C136        C537   1.482       .  S
C137        C529   1.480       .  S
N148        C153   1.354       .  A
N148        C152   1.352       .  A
N148        H180   1.037       .  S
N149        C156   1.352       .  A
N149        C157   1.351       .  A
N150        C155   1.354       .  A
N150        C154   1.354       .  A
N150        H181   1.038       .  S
N151        C158   1.350       .  A
N151        C159   1.350       .  A
C152        C160   1.385       .  A
C152        C168   1.411       .  A
C153        C169   1.418       .  A
C153        C161   1.390       .  A
C154        C162   1.386       .  A
C154        C171   1.416       .  A
C155        C170   1.417       .  A
C155        C163   1.389       .  A
C156        C168   1.411       .  A
C156        C164   1.386       .  A
C157        C171   1.411       .  A
C157        C165   1.386       .  A
C158        C166   1.386       .  A
C158        C169   1.412       .  A
C159        C167   1.387       .  A
C159        C170   1.413       .  A
C160        C161   1.374       .  A
C160        H172   1.082       .  S
C161        H173   1.082       .  S
C162        C163   1.373       .  A
C162        H174   1.082       .  S
C163        H175   1.082       .  S
C164        C165   1.374       .  A
C164        H176   1.082       .  S
C165        H177   1.082       .  S
C166        C167   1.376       .  A
C166        H178   1.082       .  S
C167        H179   1.082       .  S
C168        C545   1.480       .  S
C169        C521   1.482       .  S
C170        C518   1.482       .  S
C171        C542   1.489       .  S
N182        N183   1.316       .  A
N182        N188   1.317       .  A
N182      Mn1371   2.189       .  S
N183        C190   1.347       .  A
N184        N186   1.316       .  A
N184        N185   1.315       .  A
N184       Mn200   2.189       .  S
N185        C191   1.346       .  A
N186        N187   1.328       .  A
N186      Mn1371   2.229       .  S
N187        C191   1.362       .  A
N188        N189   1.326       .  A
N188       Mn200   2.223       .  S
N189        C190   1.359       .  A
C190        C569   1.476       .  S
C191        C501   1.483       .  S
N192        N198   1.316       .  A
N192        N193   1.328       .  A
N192      Mn1382   2.232       .  S
N193        C201   1.361       .  A
N194        N195   1.327       .  A
N194        N196   1.317       .  A
N194       Mn780   2.228       .  S
N195        C202   1.360       .  A
N196        N197   1.317       .  A
N196      Mn1382   2.195       .  S
N197        C202   1.348       .  A
N198        N199   1.314       .  A
N198       Mn780   2.178       .  S
N199        C201   1.346       .  A
Mn200       N774   2.221       .  S
Mn200       N778   2.175       .  S
Mn200     Cl1384   2.535       .  S
C201        C509   1.483       .  S
C202        C566   1.482       .  S
N203        N204   1.328       .  A
N203        N209   1.318       .  A
N203       Mn211   2.238       .  S
N204        C212   1.361       .  A
N205        N207   1.316       .  A
N205        N206   1.324       .  A
N205       Mn223   2.206       .  S
N206        C213   1.356       .  A
N207        N208   1.316       .  A
N207       Mn211   2.199       .  S
N208        C213   1.349       .  A
N209        N210   1.318       .  A
N209       Mn223   2.195       .  S
N210        C212   1.347       .  A
Mn211      N1342   2.192   1_455  S
Mn211      N1346   2.234   1_455  S
Mn211      Cl224   2.551       .  S
C212        C505   1.483       .  S
C213        C553   1.476       .  S
N214        N215   1.314       .  A
N214        N220   1.315       .  A
N214       Mn222   2.183       .  S
N215        C225   1.347       .  A
N216        N217   1.316       .  A
N216        N218   1.317       .  A
N216       Mn803   2.193       .  S
N217        C226   1.347       .  A
N218        N219   1.329       .  A
N218       Mn222   2.236       .  S
N219        C226   1.362       .  A
N220        N221   1.326       .  A
N220       Mn803   2.210       .  S
N221        C225   1.358       .  A
Mn222      N1352   2.229   1_455  S
Mn222      N1356   2.193   1_455  S
Mn222      Cl804   2.549       .  S
Mn223       N796   2.180       .  S
Mn223       N800   2.230       .  S
Mn223      Cl224   2.542       .  S
Cl224     Mn1360   2.540   1_455  S
Cl224      Mn802   2.552       .  S
C225        C550   1.477       .  S
C226        C514   1.487       .  S
N227        N228   1.327       .  A
N227        N233   1.316       .  A
N227      Mn1416   2.226       .  S
N228        C235   1.359       .  A
N229        N231   1.316       .  A
N229        N230   1.318       .  A
N229       Mn245   2.202       .  S
N230        C236   1.350       .  A
N231        N232   1.326       .  A
N231       Mn256   2.222       .  S
N232        C236   1.358       .  A
N233        N234   1.314       .  A
N233      Mn1405   2.177       .  S
N234        C235   1.345       .  A
C235        C497   1.468       .  S
C236        C493   1.479       .  S
N237        N243   1.315       .  A
N237        N238   1.323       .  A
N237       Mn267   2.206   1_556  S
N238        C246   1.353       .  A
N239        N240   1.316       .  A
N239        N241   1.315       .  A
N239      Mn1405   2.187       .  S
N240        C247   1.347       .  A
N241        N242   1.322       .  A
N241      Mn1427   2.204       .  S
N242        C247   1.355       .  A
N243        N244   1.315       .  A
N243       Mn245   2.183       .  S
N244        C246   1.350       .  A
Mn245      N1393   2.185   1_455  S
Mn245      N1399   2.201   1_455  S
Mn245      Cl269   2.519       .  S
C246        C485   1.472       .  S
C247        C489   1.463       .  S
N248        N249   1.328       .  A
N248        N254   1.315       .  A
N248       Mn256   2.233   1_554  S
N249        C257   1.361       .  A
N250        N252   1.315       .  A
N250        N251   1.319       .  A
N250      Mn1428   2.201       .  S
N251        C258   1.353       .  A
N252        N253   1.323       .  A
N252      Mn1416   2.210   1_554  S
N253        C258   1.354       .  A
N254        N255   1.312       .  A
N254       Mn268   2.165       .  S
N255        C257   1.342       .  A
Mn256      N1387   2.232   1_455  S
Mn256      N1412   2.210   1_456  S
Mn256      Cl269   2.573       .  S
C257        C469   1.467       .  S
C258        C473   1.477       .  S
N259        N260   1.330       .  A
N259        N265   1.316       .  A
N259      Mn1427   2.240   1_554  S
N260        C270   1.361       .  A
N261        N262   1.320       .  A
N261        N263   1.315       .  A
N261       Mn268   2.194       .  S
N262        C271   1.352       .  A
N263        N264   1.323       .  A
N263       Mn267   2.210       .  S
N264        C271   1.353       .  A
N265        N266   1.316       .  A
N265      Mn1428   2.187       .  S
N266        C270   1.346       .  A
Mn267      N1401   2.213   1_454  S
Mn267      N1419   2.220   1_455  S
Mn267      Cl269   2.573   1_554  S
Mn268      N1410   2.184   1_455  S
Mn268      N1425   2.178   1_455  S
Mn268      Cl269   2.517   1_554  S
C270        C482   1.480       .  S
C271        C478   1.476       .  S
N272        C277   1.350       .  A
N272        C276   1.353       .  A
N272        H304   1.042       .  S
N273        C280   1.348       .  A
N273        C281   1.348       .  A
N274        C279   1.349       .  A
N274        C278   1.353       .  A
N274        H305   1.041       .  S
N275        C282   1.349       .  A
N275        C283   1.350       .  A
C276        C284   1.388       .  A
C276        C292   1.416       .  A
C277        C293   1.410       .  A
C277        C285   1.385       .  A
C278        C286   1.389       .  A
C278        C295   1.417       .  A
C279        C294   1.405       .  A
C279        C287   1.384       .  A
C280        C292   1.407       .  A
C280        C288   1.387       .  A
C281        C295   1.407       .  A
C281        C289   1.387       .  A
C282        C290   1.386       .  A
C282        C293   1.407       .  A
C283        C291   1.386       .  A
C283        C294   1.406       .  A
C284        C285   1.376       .  A
C284        H296   1.082       .  S
C285        H297   1.082       .  S
C286        C287   1.376       .  A
C286        H298   1.081       .  S
C287        H299   1.082       .  S
C288        C289   1.371       .  A
C288        H300   1.082       .  S
C289        H301   1.082       .  S
C290        C291   1.376       .  A
C290        H302   1.082       .  S
C291        H303   1.082       .  S
C292        C465   1.488       .  S
C293        C490   1.482       .  S
C294        C486   1.473       .  S
C295        C461   1.484       .  S
N306        C311   1.356       .  A
N306        C310   1.356       .  A
N306        H338   1.041       .  S
N307        C314   1.351       .  A
N307        C315   1.355       .  A
N308        C313   1.352       .  A
N308        C312   1.350       .  A
N308        H339   1.040       .  S
N309        C316   1.349       .  A
N309        C317   1.353       .  A
C310        C318   1.387       .  A
C310        C326   1.418       .  A
C311        C327   1.418       .  A
C311        C319   1.387       .  A
C312        C320   1.387       .  A
C312        C329   1.409       .  A
C313        C328   1.410       .  A
C313        C321   1.387       .  A
C314        C326   1.415       .  A
C314        C322   1.385       .  A
C315        C329   1.418       .  A
C315        C323   1.387       .  A
C316        C324   1.387       .  A
C316        C327   1.414       .  A
C317        C325   1.386       .  A
C317        C328   1.415       .  A
C318        C319   1.379       .  A
C318        H330   1.082       .  S
C319        H331   1.082       .  S
C320        C321   1.373       .  A
C320        H332   1.082       .  S
C321        H333   1.082       .  S
C322        C323   1.375       .  A
C322        H334   1.082       .  S
C323        H335   1.081       .  S
C324        C325   1.374       .  A
C324        H336   1.082       .  S
C325        H337   1.082       .  S
C326        C494   1.497       .  S
C327        C498   1.494       .  S
C328        C458   1.489       .  S
C329        C454   1.490       .  S
N340        N341   1.325       .  A
N340        N346   1.314       .  A
N340       Mn369   2.214       .  S
N341        C348   1.356       .  A
N342        N344   1.315       .  A
N342        N343   1.315       .  A
N342       Mn938   2.181   1_545  S
N343        C349   1.348       .  A
N344        N345   1.326       .  A
N344       Mn949   2.220   1_545  S
N345        C349   1.358       .  A
N346        N347   1.317       .  A
N346       Mn358   2.186       .  S
N347        C348   1.350       .  A
C348        C522   1.476       .  S
C349        C517   1.477       .  S
N350        N356   1.315       .  A
N350        N351   1.327       .  A
N350       Mn960   2.230   1_545  S
N351        C359   1.359       .  A
N352        N353   1.316       .  A
N352        N354   1.314       .  A
N352      Mn1518   2.179       .  S
N353        C360   1.349       .  A
N354        N355   1.325       .  A
N354       Mn380   2.219       .  S
N355        C360   1.357       .  A
N356        N357   1.316       .  A
N356      Mn2098   2.179   1_545  S
N357        C359   1.348       .  A
Mn358       N922   2.183       .  S
Mn358      N1512   2.177   1_455  S
Mn358      N2096   2.184   1_455  S
Mn358      Cl382   2.525       .  S
C359        C526   1.481       .  S
C360        C530   1.476       .  S
N361        N362   1.322       .  A
N361        N367   1.316       .  A
N361       Mn949   2.218   1_545  S
N362        C370   1.358       .  A
N363        N365   1.315       .  A
N363        N364   1.319       .  A
N363       Mn381   2.195       .  S
N364        C371   1.351       .  A
N365        N366   1.318       .  A
N365       Mn369   2.195       .  S
N366        C371   1.354       .  A
N367        N368   1.319       .  A
N367       Mn961   2.196       .  S
N368        C370   1.349       .  A
Mn369       N924   2.210       .  S
Mn369       N941   2.200       .  S
Mn369      Cl382   2.562       .  S
C370        C453   1.476       .  S
C371        C462   1.467       .  S
N372        N373   1.319       .  A
N372        N378   1.316       .  A
N372       Mn380   2.199       .  S
N373        C383   1.354       .  A
N374        N375   1.319       .  A
N374        N376   1.317       .  A
N374      Mn2121   2.199   1_545  S
N375        C384   1.350       .  A
N376        N377   1.320       .  A
N376       Mn960   2.208   1_545  S
N377        C384   1.356       .  A
N378        N379   1.320       .  A
N378      Mn1541   2.203       .  S
N379        C383   1.351       .  A
Mn380       N930   2.220       .  S
Mn380       N956   2.198       .  S
Mn380     Cl1542   2.560       .  S
Mn381       N947   2.206       .  S
Mn381      N2114   2.197   1_455  S
Mn381      N1538   2.201   1_455  S
Mn381      Cl382   2.523       .  S
Cl382     Mn1540   2.562   1_455  S
C383        C466   1.471       .  S
C384        C457   1.473       .  S
N385        C390   1.356       .  A
N385        C389   1.355       .  A
N385        H417   1.039       .  S
N386        C393   1.352       .  A
N386        C394   1.351       .  A
N387        C392   1.353       .  A
N387        C391   1.356       .  A
N387        H418   1.039       .  S
N388        C395   1.354       .  A
N388        C396   1.351       .  A
C389        C397   1.387       .  A
C389        C405   1.418       .  A
C390        C406   1.419       .  A
C390        C398   1.387       .  A
C391        C399   1.387       .  A
C391        C408   1.416       .  A
C392        C407   1.416       .  A
C392        C400   1.388       .  A
C393        C405   1.414       .  A
C393        C401   1.386       .  A
C394        C408   1.411       .  A
C394        C402   1.386       .  A
C395        C403   1.385       .  A
C395        C406   1.415       .  A
C396        C404   1.387       .  A
C396        C407   1.418       .  A
C397        C398   1.375       .  A
C397        H409   1.082       .  S
C398        H410   1.082       .  S
C399        C400   1.377       .  A
C399        H411   1.082       .  S
C400        H412   1.082       .  S
C401        C402   1.372       .  A
C401        H413   1.081       .  S
C402        H414   1.081       .  S
C403        C404   1.374       .  A
C403        H415   1.082       .  S
C404        H416   1.082       .  S
C405        C510   1.492       .  S
C406        C513   1.495       .  S
C407        C470   1.490       .  S
C408        C474   1.486       .  S
N419        C424   1.355       .  A
N419        C423   1.354       .  A
N419        H451   1.036       .  S
N420        C427   1.351       .  A
N420        C428   1.354       .  A
N421        C426   1.357       .  A
N421        C425   1.360       .  A
N421        H452   1.040       .  S
N422        C429   1.355       .  A
N422        C430   1.355       .  A
C423        C431   1.387       .  A
C423        C439   1.420       .  A
C424        C440   1.422       .  A
C424        C432   1.387       .  A
C425        C433   1.388       .  A
C425        C442   1.427       .  A
C426        C441   1.423       .  A
C426        C434   1.389       .  A
C427        C439   1.414       .  A
C427        C435   1.387       .  A
C428        C442   1.415       .  A
C428        C436   1.385       .  A
C429        C437   1.387       .  A
C429        C440   1.421       .  A
C430        C438   1.387       .  A
C430        C441   1.418       .  A
C431        C432   1.381       .  A
C431        H443   1.082       .  S
C432        H444   1.082       .  S
C433        C434   1.375       .  A
C433        H445   1.082       .  S
C434        H446   1.081       .  S
C435        C436   1.371       .  A
C435        H447   1.082       .  S
C436        H448   1.081       .  S
C437        C438   1.372       .  A
C437        H449   1.082       .  S
C438        H450   1.081       .  S
C439        C477   1.485       .  S
C440        C481   1.497       .  S
C441        C502   1.496       .  S
C442        C506   1.510       .  S
C453        C454   1.342       .  D
C453        H455   1.086       .  S
C454        H456   1.087       .  S
C457        C458   1.343       .  D
C457        H459   1.086       .  S
C458        H460   1.087       .  S
C461        C462   1.341       .  D
C461        H463   1.088       .  S
C462        H464   1.086       .  S
C465        C466   1.343       .  D
C465        H467   1.087       .  S
C466        H468   1.086       .  S
C469        C470   1.337       .  D
C469        H471   1.088       .  S
C470        H472   1.086       .  S
C473        C474   1.343       .  D
C473        H475   1.086       .  S
C474        H476   1.086       .  S
C477        C478   1.343       .  D
C477        H479   1.087       .  S
C478        H480   1.086       .  S
C481        C482   1.342       .  D
C481        H483   1.086       .  S
C482        H484   1.087       .  S
C485        C486   1.340       .  D
C485        H487   1.086       .  S
C486        H488   1.086       .  S
C489        C490   1.339       .  D
C489        H491   1.088       .  S
C490        H492   1.086       .  S
C493        C494   1.345       .  D
C493        H495   1.087       .  S
C494        H496   1.086       .  S
C497        C498   1.342       .  D
C497        H499   1.088       .  S
C498        H500   1.086       .  S
C501        C502   1.353       .  D
C501        H503   1.086       .  S
C502        H504   1.086       .  S
C505        C506   1.355       .  D
C505        H507   1.083       .  S
C506        H508   1.086       .  S
C509        C510   1.352       .  D
C509        H511   1.085       .  S
C510        H512   1.087       .  S
C513        C514   1.352       .  D
C513        H515   1.087       .  S
C514        H516   1.086       .  S
C517        C518   1.346       .  D
C517        H519   1.086       .  S
C518        H520   1.087       .  S
C521        C522   1.344       .  D
C521        H523   1.087       .  S
C522        H524   1.086       .  S
C525        C526   1.348       .  D
C525        H527   1.086       .  S
C526        H528   1.086       .  S
C529        C530   1.344       .  D
C529        H531   1.087       .  S
C530        H532   1.086       .  S
C533        C534   1.339       .  D
C533        H535   1.088       .  S
C534        H536   1.086       .  S
C537        C538   1.343       .  D
C537        H539   1.086       .  S
C538        H540   1.086       .  S
C541        C542   1.341       .  D
C541        H543   1.087       .  S
C542        H544   1.086       .  S
C545        C546   1.341       .  D
C545        H547   1.086       .  S
C546        H548   1.086       .  S
C549        C550   1.347       .  D
C549        H551   1.087       .  S
C550        H552   1.086       .  S
C553        C554   1.347       .  D
C553        H555   1.086       .  S
C554        H556   1.087       .  S
C557        C558   1.346       .  D
C557        H559   1.087       .  S
C558        H560   1.086       .  S
C561        C562   1.343       .  D
C561        H563   1.087       .  S
C562        H564   1.087       .  S
C565        C566   1.352       .  D
C565        H567   1.086       .  S
C566        H568   1.086       .  S
C569        C570   1.351       .  D
C569        H571   1.084       .  S
C570        H572   1.087       .  S
C573        C574   1.345       .  D
C573        H575   1.087       .  S
C574        H576   1.086       .  S
C577        C578   1.345       .  D
C577        H579   1.086       .  S
C578        H580   1.086       .  S
N581        C586   1.353       .  A
N581        C585   1.352       .  A
N581        H613   1.036       .  S
N582        C589   1.353       .  A
N582        C590   1.354       .  A
N583        C588   1.358       .  A
N583        C587   1.358       .  A
N583        H614   1.040       .  S
N584        C591   1.350       .  A
N584        C592   1.352       .  A
C585        C593   1.386       .  A
C585        C601   1.414       .  A
C586        C602   1.417       .  A
C586        C594   1.388       .  A
C587        C595   1.389       .  A
C587        C604   1.424       .  A
C588        C603   1.423       .  A
C588        C596   1.387       .  A
C589        C601   1.417       .  A
C589        C597   1.385       .  A
C590        C604   1.419       .  A
C590        C598   1.388       .  A
C591        C599   1.387       .  A
C591        C602   1.412       .  A
C592        C600   1.386       .  A
C592        C603   1.414       .  A
C593        C594   1.379       .  A
C593        H605   1.082       .  S
C594        H606   1.082       .  S
C595        C596   1.374       .  A
C595        H607   1.081       .  S
C596        H608   1.082       .  S
C597        C598   1.370       .  A
C597        H609   1.082       .  S
C598        H610   1.080       .  S
C599        C600   1.372       .  A
C599        H611   1.082       .  S
C600        H612   1.081       .  S
C601       C1153   1.484       .  S
C602       C1158   1.482       .  S
C603       C1150   1.502       .  S
C604       C1145   1.496       .  S
N615        C620   1.357       .  A
N615        C619   1.353       .  A
N615        H647   1.043       .  S
N616        C623   1.351       .  A
N616        C624   1.352       .  A
N617        C622   1.354       .  A
N617        C621   1.350       .  A
N617        H648   1.043       .  S
N618        C625   1.354       .  A
N618        C626   1.355       .  A
C619        C627   1.388       .  A
C619        C635   1.417       .  A
C620        C636   1.418       .  A
C620        C628   1.386       .  A
C621        C629   1.388       .  A
C621        C638   1.411       .  A
C622        C637   1.413       .  A
C622        C630   1.386       .  A
C623        C635   1.413       .  A
C623        C631   1.387       .  A
C624        C638   1.412       .  A
C624        C632   1.386       .  A
C625        C633   1.387       .  A
C625        C636   1.418       .  A
C626        C634   1.387       .  A
C626        C637   1.417       .  A
C627        C628   1.376       .  A
C627        H639   1.082       .  S
C628        H640   1.081       .  S
C629        C630   1.375       .  A
C629        H641   1.082       .  S
C630        H642   1.081       .  S
C631        C632   1.377       .  A
C631        H643   1.082       .  S
C632        H644   1.082       .  S
C633        C634   1.373       .  A
C633        H645   1.082       .  S
C634        H646   1.082       .  S
C635       C1137   1.484       .  S
C636       C1129   1.505       .  S
C637       C1134   1.503       .  S
C638       C1142   1.480       .  S
N649        N650   1.323       .  A
N649        N655   1.314       .  A
N650        C657   1.354       .  A
N651        N653   1.315       .  A
N651        N652   1.315       .  A
N651       Mn667   2.178       .  S
N652        C658   1.348       .  A
N653        N654   1.327       .  A
N653       Mn678   2.226       .  S
N654        C658   1.359       .  A
N655        N656   1.318       .  A
N656        C657   1.351       .  A
C657       C1157   1.474       .  S
C658       C1154   1.477       .  S
N659        N665   1.314       .  A
N659        N660   1.326       .  A
N659       Mn689   2.219       .  S
N660        C668   1.358       .  A
N661        N662   1.318       .  A
N661        N663   1.315       .  A
N662        C669   1.351       .  A
N663        N664   1.323       .  A
N664        C669   1.353       .  A
N665        N666   1.315       .  A
N665       Mn667   2.182       .  S
N666        C668   1.349       .  A
Mn667      Cl691   2.515       .  S
C668       C1138   1.479       .  S
C669       C1141   1.474       .  S
N670        N671   1.326       .  A
N670        N676   1.316       .  A
N670       Mn678   2.222       .  S
N671        C679   1.358       .  A
N672        N674   1.315       .  A
N672        N673   1.319       .  A
N673        C680   1.352       .  A
N674        N675   1.323       .  A
N675        C680   1.353       .  A
N676        N677   1.315       .  A
N676       Mn690   2.184       .  S
N677        C679   1.345       .  A
Mn678      Cl691   2.569       .  S
C679       C1113   1.466       .  S
C680       C1118   1.476       .  S
N681        N682   1.322       .  A
N681        N687   1.314       .  A
N682        C692   1.353       .  A
N683        N684   1.317       .  A
N683        N685   1.316       .  A
N683       Mn690   2.194       .  S
N684        C693   1.348       .  A
N685        N686   1.325       .  A
N685       Mn689   2.215       .  S
N686        C693   1.357       .  A
N687        N688   1.317       .  A
N688        C692   1.351       .  A
Mn689      Cl691   2.567       .  S
Mn690      Cl691   2.524       .  S
C692       C1126   1.472       .  S
C693       C1121   1.471       .  S
N694        C699   1.353       .  A
N694        C698   1.355       .  A
N694        H726   1.038       .  S
N695        C702   1.352       .  A
N695        C703   1.350       .  A
N696        C701   1.353       .  A
N696        C700   1.354       .  A
N696        H727   1.037       .  S
N697        C704   1.352       .  A
N697        C705   1.352       .  A
C698        C706   1.389       .  A
C698        C714   1.417       .  A
C699        C715   1.417       .  A
C699        C707   1.387       .  A
C700        C708   1.390       .  A
C700        C717   1.418       .  A
C701        C716   1.412       .  A
C701        C709   1.386       .  A
C702        C714   1.414       .  A
C702        C710   1.386       .  A
C703        C717   1.414       .  A
C703        C711   1.386       .  A
C704        C712   1.387       .  A
C704        C715   1.413       .  A
C705        C713   1.386       .  A
C705        C716   1.412       .  A
C706        C707   1.372       .  A
C706        H718   1.082       .  S
C707        H719   1.082       .  S
C708        C709   1.374       .  A
C708        H720   1.082       .  S
C709        H721   1.083       .  S
C710        C711   1.377       .  A
C710        H722   1.082       .  S
C711        H723   1.082       .  S
C712        C713   1.375       .  A
C712        H724   1.082       .  S
C713        H725   1.082       .  S
C714       C1105   1.487       .  S
C715       C1114   1.491       .  S
C716       C1117   1.482       .  S
C717       C1109   1.483       .  S
N728        C733   1.355       .  A
N728        C732   1.351       .  A
N728        H760   1.039       .  S
N729        C736   1.351       .  A
N729        C737   1.352       .  A
N730        C735   1.353       .  A
N730        C734   1.354       .  A
N730        H761   1.042       .  S
N731        C738   1.350       .  A
N731        C739   1.349       .  A
C732        C740   1.387       .  A
C732        C748   1.413       .  A
C733        C749   1.418       .  A
C733        C741   1.389       .  A
C734        C742   1.386       .  A
C734        C751   1.414       .  A
C735        C750   1.416       .  A
C735        C743   1.390       .  A
C736        C748   1.411       .  A
C736        C744   1.387       .  A
C737        C751   1.411       .  A
C737        C745   1.386       .  A
C738        C746   1.385       .  A
C738        C749   1.412       .  A
C739        C747   1.387       .  A
C739        C750   1.412       .  A
C740        C741   1.374       .  A
C740        H752   1.082       .  S
C741        H753   1.082       .  S
C742        C743   1.373       .  A
C742        H754   1.082       .  S
C743        H755   1.082       .  S
C744        C745   1.375       .  A
C744        H756   1.082       .  S
C745        H757   1.082       .  S
C746        C747   1.377       .  A
C746        H758   1.082       .  S
C747        H759   1.082       .  S
C748       C1125   1.477       .  S
C749       C1101   1.484       .  S
C750       C1098   1.479       .  S
C751       C1122   1.491       .  S
N762        N763   1.316       .  A
N762        N768   1.317       .  A
N762      Mn1951   2.191       .  S
N763        C770   1.347       .  A
N764        N766   1.316       .  A
N764        N765   1.316       .  A
N764       Mn780   2.196   1_565  S
N765        C771   1.348       .  A
N766        N767   1.328       .  A
N766      Mn1951   2.224       .  S
N767        C771   1.361       .  A
N768        N769   1.326       .  A
N768       Mn780   2.224   1_565  S
N769        C770   1.358       .  A
C770       C1149   1.475       .  S
C771       C1081   1.486       .  S
N772        N778   1.315       .  A
N772        N773   1.329       .  A
N772      Mn1962   2.230       .  S
N773        C781   1.362       .  A
N774        N775   1.326       .  A
N774        N776   1.316       .  A
N775        C782   1.359       .  A
N776        N777   1.317       .  A
N776      Mn1962   2.191       .  S
N777        C782   1.348       .  A
N778        N779   1.312       .  A
N779        C781   1.345       .  A
Mn780     Cl1964   2.543       .  S
C781       C1089   1.481       .  S
C782       C1146   1.479       .  S
N783        N784   1.328       .  A
N783        N789   1.316       .  A
N783       Mn791   2.222       .  S
N784        C792   1.360       .  A
N785        N787   1.317       .  A
N785        N786   1.327       .  A
N785       Mn803   2.225   1_565  S
N786        C793   1.359       .  A
N787        N788   1.316       .  A
N787       Mn791   2.194       .  S
N788        C793   1.347       .  A
N789        N790   1.312       .  A
N789       Mn803   2.176   1_565  S
N790        C792   1.344       .  A
Mn791      N1922   2.181   1_455  S
Mn791      N1926   2.226   1_455  S
Mn791      Cl804   2.556   1_565  S
C792       C1085   1.477       .  S
C793       C1133   1.477       .  S
N794        N795   1.316       .  A
N794        N800   1.317       .  A
N794       Mn802   2.189       .  S
N795        C805   1.346       .  A
N796        N797   1.312       .  A
N796        N798   1.317       .  A
N797        C806   1.345       .  A
N798        N799   1.327       .  A
N798       Mn802   2.219       .  S
N799        C806   1.359       .  A
N800        N801   1.328       .  A
N801        C805   1.360       .  A
Mn802      N1932   2.240   1_455  S
Mn802      N1936   2.186   1_455  S
Mn803      Cl804   2.538       .  S
Cl804     Mn1940   2.538   1_455  S
C805       C1130   1.480       .  S
C806       C1094   1.475       .  S
N807        N808   1.329       .  A
N807        N813   1.316       .  A
N807      Mn1996   2.243       .  S
N808        C815   1.362       .  A
N809        N811   1.314       .  A
N809        N810   1.321       .  A
N809       Mn825   2.206       .  S
N810        C816   1.355       .  A
N811        N812   1.318       .  A
N811       Mn836   2.182       .  S
N812        C816   1.348       .  A
N813        N814   1.315       .  A
N813      Mn1985   2.177       .  S
N814        C815   1.344       .  A
C815       C1077   1.475       .  S
C816       C1073   1.468       .  S
N817        N823   1.316       .  A
N817        N818   1.322       .  A
N817       Mn847   2.206   1_455  S
N818        C826   1.352       .  A
N819        N820   1.313       .  A
N819        N821   1.316       .  A
N819      Mn1985   2.179       .  S
N820        C827   1.344       .  A
N821        N822   1.327       .  A
N821      Mn2007   2.223   1_556  S
N822        C827   1.359       .  A
N823        N824   1.317       .  A
N823       Mn825   2.190       .  S
N824        C826   1.352       .  A
Mn825      N1973   2.194   1_455  S
Mn825      N1979   2.198   1_455  S
Mn825      Cl849   2.522       .  S
C826       C1065   1.471       .  S
C827       C1069   1.467       .  S
N828        N829   1.323       .  A
N828        N834   1.315       .  A
N828       Mn836   2.207   1_554  S
N829        C837   1.353       .  A
N830        N832   1.315       .  A
N830        N831   1.312       .  A
N830      Mn2008   2.173       .  S
N831        C838   1.346       .  A
N832        N833   1.327       .  A
N832      Mn1996   2.223   1_554  S
N833        C838   1.358       .  A
N834        N835   1.317       .  A
N834       Mn848   2.186       .  S
N835        C837   1.351       .  A
Mn836      N1967   2.216   1_455  S
Mn836      N1992   2.190   1_456  S
Mn836      Cl849   2.563       .  S
C837       C1049   1.472       .  S
C838       C1053   1.474       .  S
N839        N840   1.327       .  A
N839        N845   1.314       .  A
N839      Mn2007   2.227       .  S
N840        C850   1.361       .  A
N841        N842   1.321       .  A
N841        N843   1.315       .  A
N841       Mn848   2.201       .  S
N842        C851   1.354       .  A
N843        N844   1.321       .  A
N843       Mn847   2.198   1_454  S
N844        C851   1.350       .  A
N845        N846   1.313       .  A
N845      Mn2008   2.167       .  S
N846        C850   1.342       .  A
Mn847      N1981   2.206       .  S
Mn847      N1999   2.226   1_556  S
Mn847      Cl849   2.567   1_655  S
Mn848      N1990   2.192   1_455  S
Mn848      N2005   2.183   1_455  S
Mn848      Cl849   2.521   1_554  S
C850       C1062   1.466       .  S
C851       C1058   1.472       .  S
N852        C857   1.353       .  A
N852        C856   1.356       .  A
N852        H884   1.041       .  S
N853        C860   1.349       .  A
N853        C861   1.348       .  A
N854        C859   1.349       .  A
N854        C858   1.352       .  A
N854        H885   1.041       .  S
N855        C862   1.350       .  A
N855        C863   1.351       .  A
C856        C864   1.387       .  A
C856        C872   1.420       .  A
C857        C873   1.417       .  A
C857        C865   1.386       .  A
C858        C866   1.389       .  A
C858        C875   1.416       .  A
C859        C874   1.405       .  A
C859        C867   1.384       .  A
C860        C872   1.409       .  A
C860        C868   1.388       .  A
C861        C875   1.407       .  A
C861        C869   1.386       .  A
C862        C870   1.387       .  A
C862        C873   1.410       .  A
C863        C871   1.385       .  A
C863        C874   1.407       .  A
C864        C865   1.377       .  A
C864        H876   1.082       .  S
C865        H877   1.082       .  S
C866        C867   1.376       .  A
C866        H878   1.081       .  S
C867        H879   1.082       .  S
C868        C869   1.370       .  A
C868        H880   1.082       .  S
C869        H881   1.083       .  S
C870        C871   1.376       .  A
C870        H882   1.082       .  S
C871        H883   1.082       .  S
C872       C1045   1.492       .  S
C873       C1070   1.490       .  S
C874       C1066   1.475       .  S
C875       C1041   1.483       .  S
N886        C891   1.355       .  A
N886        C890   1.352       .  A
N886        H918   1.040       .  S
N887        C894   1.348       .  A
N887        C895   1.353       .  A
N888        C893   1.350       .  A
N888        C892   1.352       .  A
N888        H919   1.040       .  S
N889        C896   1.353       .  A
N889        C897   1.351       .  A
C890        C898   1.388       .  A
C890        C906   1.415       .  A
C891        C907   1.416       .  A
C891        C899   1.387       .  A
C892        C900   1.385       .  A
C892        C909   1.409       .  A
C893        C908   1.410       .  A
C893        C901   1.389       .  A
C894        C906   1.410       .  A
C894        C902   1.387       .  A
C895        C909   1.414       .  A
C895        C903   1.386       .  A
C896        C904   1.385       .  A
C896        C907   1.415       .  A
C897        C905   1.387       .  A
C897        C908   1.414       .  A
C898        C899   1.380       .  A
C898        H910   1.082       .  S
C899        H911   1.082       .  S
C900        C901   1.373       .  A
C900        H912   1.083       .  S
C901        H913   1.082       .  S
C902        C903   1.371       .  A
C902        H914   1.082       .  S
C903        H915   1.081       .  S
C904        C905   1.374       .  A
C904        H916   1.082       .  S
C905        H917   1.082       .  S
C906       C1074   1.477       .  S
C907       C1078   1.498       .  S
C908       C1038   1.482       .  S
C909       C1034   1.491       .  S
N920        N921   1.327       .  A
N920        N926   1.315       .  A
N920       Mn949   2.230       .  S
N921        C928   1.359       .  A
N922        N924   1.314       .  A
N922        N923   1.316       .  A
N923        C929   1.349       .  A
N924        N925   1.324       .  A
N925        C929   1.355       .  A
N926        N927   1.316       .  A
N926       Mn938   2.179       .  S
N927        C928   1.349       .  A
C928       C1102   1.481       .  S
C929       C1097   1.473       .  S
N930        N936   1.314       .  A
N930        N931   1.326       .  A
N931        C939   1.357       .  A
N932        N933   1.317       .  A
N932        N934   1.315       .  A
N932      Mn2098   2.179       .  S
N933        C940   1.349       .  A
N934        N935   1.326       .  A
N934       Mn960   2.229       .  S
N935        C940   1.357       .  A
N936        N937   1.317       .  A
N936      Mn1518   2.186       .  S
N937        C939   1.350       .  A
Mn938      N2092   2.188   1_455  S
Mn938      N1516   2.183   1_465  S
Mn938      Cl962   2.522       .  S
C939       C1106   1.480       .  S
C940       C1110   1.478       .  S
N941        N942   1.319       .  A
N941        N947   1.315       .  A
N942        C950   1.354       .  A
N943        N945   1.315       .  A
N943        N944   1.320       .  A
N943       Mn961   2.201   1_565  S
N944        C951   1.351       .  A
N945        N946   1.318       .  A
N945       Mn949   2.195       .  S
N946        C951   1.354       .  A
N947        N948   1.321       .  A
N948        C950   1.353       .  A
Mn949      Cl962   2.569       .  S
C950       C1033   1.473       .  S
C951       C1042   1.467       .  S
N952        N953   1.320       .  A
N952        N958   1.317       .  A
N952       Mn960   2.210       .  S
N953        C963   1.356       .  A
N954        N955   1.319       .  A
N954        N956   1.315       .  A
N954      Mn1541   2.192       .  S
N955        C964   1.350       .  A
N956        N957   1.318       .  A
N957        C964   1.354       .  A
N958        N959   1.320       .  A
N958      Mn2121   2.201       .  S
N959        C963   1.351       .  A
Mn960     Cl2122   2.563       .  S
Mn961      N1534   2.202   1_455  S
Mn961      N2118   2.195   1_445  S
Mn961      Cl962   2.521   1_545  S
Cl962     Mn2120   2.564   1_455  S
C963       C1046   1.476       .  S
C964       C1037   1.466       .  S
N965        C970   1.354       .  A
N965        C969   1.354       .  A
N965        H997   1.039       .  S
N966        C973   1.351       .  A
N966        C974   1.350       .  A
N967        C972   1.352       .  A
N967        C971   1.352       .  A
N967        H998   1.040       .  S
N968        C975   1.351       .  A
N968        C976   1.349       .  A
C969        C977   1.388       .  A
C969        C985   1.417       .  A
C970        C986   1.415       .  A
C970        C978   1.387       .  A
C971        C979   1.389       .  A
C971        C988   1.414       .  A
C972        C987   1.410       .  A
C972        C980   1.386       .  A
C973        C985   1.411       .  A
C973        C981   1.384       .  A
C974        C988   1.413       .  A
C974        C982   1.388       .  A
C975        C983   1.387       .  A
C975        C986   1.410       .  A
C976        C984   1.385       .  A
C976        C987   1.406       .  A
C977        C978   1.375       .  A
C977        H989   1.082       .  S
C978        H990   1.082       .  S
C979        C980   1.378       .  A
C979        H991   1.082       .  S
C980        H992   1.083       .  S
C981        C982   1.373       .  A
C981        H993   1.082       .  S
C982        H994   1.081       .  S
C983        C984   1.370       .  A
C983        H995   1.081       .  S
C984        H996   1.082       .  S
C985       C1090   1.487       .  S
C986       C1093   1.486       .  S
C987       C1050   1.476       .  S
C988       C1054   1.479       .  S
N999       C1004   1.351       .  A
N999       C1003   1.355       .  A
N999       H1031   1.039       .  S
N1000      C1007   1.349       .  A
N1000      C1008   1.350       .  A
N1001      C1006   1.356       .  A
N1001      C1005   1.355       .  A
N1001      H1032   1.038       .  S
N1002      C1009   1.351       .  A
N1002      C1010   1.354       .  A
C1003      C1011   1.387       .  A
C1003      C1019   1.414       .  A
C1004      C1020   1.414       .  A
C1004      C1012   1.388       .  A
C1005      C1013   1.387       .  A
C1005      C1022   1.418       .  A
C1006      C1021   1.420       .  A
C1006      C1014   1.388       .  A
C1007      C1019   1.409       .  A
C1007      C1015   1.386       .  A
C1008      C1022   1.411       .  A
C1008      C1016   1.386       .  A
C1009      C1017   1.387       .  A
C1009      C1020   1.416       .  A
C1010      C1018   1.385       .  A
C1010      C1021   1.414       .  A
C1011      C1012   1.378       .  A
C1011      H1023   1.082       .  S
C1012      H1024   1.082       .  S
C1013      C1014   1.375       .  A
C1013      H1025   1.082       .  S
C1014      H1026   1.082       .  S
C1015      C1016   1.370       .  A
C1015      H1027   1.081       .  S
C1016      H1028   1.081       .  S
C1017      C1018   1.374       .  A
C1017      H1029   1.082       .  S
C1018      H1030   1.082       .  S
C1019      C1057   1.482       .  S
C1020      C1061   1.484       .  S
C1021      C1082   1.495       .  S
C1022      C1086   1.488       .  S
C1033      C1034   1.344       .  D
C1033      H1035   1.085       .  S
C1034      H1036   1.088       .  S
C1037      C1038   1.341       .  D
C1037      H1039   1.086       .  S
C1038      H1040   1.087       .  S
C1041      C1042   1.340       .  D
C1041      H1043   1.088       .  S
C1042      H1044   1.086       .  S
C1045      C1046   1.343       .  D
C1045      H1047   1.087       .  S
C1046      H1048   1.086       .  S
C1049      C1050   1.341       .  D
C1049      H1051   1.086       .  S
C1050      H1052   1.087       .  S
C1053      C1054   1.346       .  D
C1053      H1055   1.086       .  S
C1054      H1056   1.087       .  S
C1057      C1058   1.340       .  D
C1057      H1059   1.086       .  S
C1058      H1060   1.087       .  S
C1061      C1062   1.335       .  D
C1061      H1063   1.086       .  S
C1062      H1064   1.088       .  S
C1065      C1066   1.339       .  D
C1065      H1067   1.086       .  S
C1066      H1068   1.087       .  S
C1069      C1070   1.339       .  D
C1069      H1071   1.088       .  S
C1070      H1072   1.086       .  S
C1073      C1074   1.337       .  D
C1073      H1075   1.087       .  S
C1074      H1076   1.086       .  S
C1077      C1078   1.343       .  D
C1077      H1079   1.087       .  S
C1078      H1080   1.086       .  S
C1081      C1082   1.351       .  D
C1081      H1083   1.086       .  S
C1082      H1084   1.087       .  S
C1085      C1086   1.351       .  D
C1085      H1087   1.086       .  S
C1086      H1088   1.087       .  S
C1089      C1090   1.352       .  D
C1089      H1091   1.086       .  S
C1090      H1092   1.087       .  S
C1093      C1094   1.350       .  D
C1093      H1095   1.087       .  S
C1094      H1096   1.086       .  S
C1097      C1098   1.343       .  D
C1097      H1099   1.086       .  S
C1098      H1100   1.087       .  S
C1101      C1102   1.347       .  D
C1101      H1103   1.087       .  S
C1102      H1104   1.086       .  S
C1105      C1106   1.346       .  D
C1105      H1107   1.087       .  S
C1106      H1108   1.086       .  S
C1109      C1110   1.345       .  D
C1109      H1111   1.087       .  S
C1110      H1112   1.086       .  S
C1113      C1114   1.341       .  D
C1113      H1115   1.088       .  S
C1114      H1116   1.086       .  S
C1117      C1118   1.342       .  D
C1117      H1119   1.087       .  S
C1118      H1120   1.086       .  S
C1121      C1122   1.342       .  D
C1121      H1123   1.087       .  S
C1122      H1124   1.086       .  S
C1125      C1126   1.340       .  D
C1125      H1127   1.086       .  S
C1126      H1128   1.086       .  S
C1129      C1130   1.352       .  D
C1129      H1131   1.087       .  S
C1130      H1132   1.083       .  S
C1133      C1134   1.351       .  D
C1133      H1135   1.083       .  S
C1134      H1136   1.086       .  S
C1137      C1138   1.346       .  D
C1137      H1139   1.087       .  S
C1138      H1140   1.086       .  S
C1141      C1142   1.342       .  D
C1141      H1143   1.086       .  S
C1142      H1144   1.087       .  S
C1145      C1146   1.350       .  D
C1145      H1147   1.086       .  S
C1146      H1148   1.086       .  S
C1149      C1150   1.351       .  D
C1149      H1151   1.083       .  S
C1150      H1152   1.087       .  S
C1153      C1154   1.346       .  D
C1153      H1155   1.087       .  S
C1154      H1156   1.086       .  S
C1157      C1158   1.344       .  D
C1157      H1159   1.086       .  S
C1158      H1160   1.086       .  S
N1161      C1166   1.354       .  A
N1161      C1165   1.352       .  A
N1161      H1193   1.036       .  S
N1162      C1169   1.353       .  A
N1162      C1170   1.354       .  A
N1163      C1168   1.358       .  A
N1163      C1167   1.357       .  A
N1163      H1194   1.040       .  S
N1164      C1171   1.350       .  A
N1164      C1172   1.352       .  A
C1165      C1173   1.387       .  A
C1165      C1181   1.416       .  A
C1166      C1182   1.418       .  A
C1166      C1174   1.388       .  A
C1167      C1175   1.389       .  A
C1167      C1184   1.422       .  A
C1168      C1183   1.423       .  A
C1168      C1176   1.388       .  A
C1169      C1181   1.418       .  A
C1169      C1177   1.386       .  A
C1170      C1184   1.418       .  A
C1170      C1178   1.388       .  A
C1171      C1179   1.386       .  A
C1171      C1182   1.412       .  A
C1172      C1180   1.386       .  A
C1172      C1183   1.414       .  A
C1173      C1174   1.379       .  A
C1173      H1185   1.082       .  S
C1174      H1186   1.082       .  S
C1175      C1176   1.375       .  A
C1175      H1187   1.081       .  S
C1176      H1188   1.082       .  S
C1177      C1178   1.370       .  A
C1177      H1189   1.082       .  S
C1178      H1190   1.080       .  S
C1179      C1180   1.373       .  A
C1179      H1191   1.082       .  S
C1180      H1192   1.081       .  S
C1181      C1733   1.485       .  S
C1182      C1738   1.486       .  S
C1183      C1730   1.503       .  S
C1184      C1725   1.496       .  S
N1195      C1200   1.355       .  A
N1195      C1199   1.353       .  A
N1195      H1227   1.039       .  S
N1196      C1203   1.351       .  A
N1196      C1204   1.352       .  A
N1197      C1202   1.352       .  A
N1197      C1201   1.352       .  A
N1197      H1228   1.039       .  S
N1198      C1205   1.354       .  A
N1198      C1206   1.354       .  A
C1199      C1207   1.387       .  A
C1199      C1215   1.416       .  A
C1200      C1216   1.416       .  A
C1200      C1208   1.386       .  A
C1201      C1209   1.387       .  A
C1201      C1218   1.412       .  A
C1202      C1217   1.414       .  A
C1202      C1210   1.387       .  A
C1203      C1215   1.413       .  A
C1203      C1211   1.387       .  A
C1204      C1218   1.411       .  A
C1204      C1212   1.386       .  A
C1205      C1213   1.387       .  A
C1205      C1216   1.418       .  A
C1206      C1214   1.386       .  A
C1206      C1217   1.416       .  A
C1207      C1208   1.375       .  A
C1207      H1219   1.082       .  S
C1208      H1220   1.082       .  S
C1209      C1210   1.372       .  A
C1209      H1221   1.081       .  S
C1210      H1222   1.082       .  S
C1211      C1212   1.375       .  A
C1211      H1223   1.082       .  S
C1212      H1224   1.083       .  S
C1213      C1214   1.370       .  A
C1213      H1225   1.082       .  S
C1214      H1226   1.082       .  S
C1215      C1717   1.482       .  S
C1216      C1709   1.493       .  S
C1217      C1714   1.488       .  S
C1218      C1722   1.480       .  S
N1229      N1230   1.324       .  A
N1229      N1235   1.316       .  A
N1229     Mn1838   2.219       .  S
N1230      C1237   1.356       .  A
N1231      N1233   1.315       .  A
N1231      N1232   1.317       .  A
N1231     Mn1247   2.191       .  S
N1232      C1238   1.350       .  A
N1233      N1234   1.325       .  A
N1233     Mn1258   2.216       .  S
N1234      C1238   1.356       .  A
N1235      N1236   1.318       .  A
N1235     Mn1827   2.191       .  S
N1236      C1237   1.350       .  A
C1237      C1737   1.477       .  S
C1238      C1734   1.476       .  S
N1239      N1245   1.315       .  A
N1239      N1240   1.326       .  A
N1239     Mn1269   2.225       .  S
N1240      C1248   1.358       .  A
N1241      N1242   1.317       .  A
N1241      N1243   1.315       .  A
N1241     Mn1827   2.185       .  S
N1242      C1249   1.350       .  A
N1243      N1244   1.323       .  A
N1243     Mn1849   2.208       .  S
N1244      C1249   1.354       .  A
N1245      N1246   1.316       .  A
N1245     Mn1247   2.181       .  S
N1246      C1248   1.348       .  A
Mn1247     N1815   2.186   1_545  S
Mn1247     N1821   2.191   1_545  S
Mn1247    Cl1271   2.516       .  S
C1248      C1718   1.477       .  S
C1249      C1721   1.472       .  S
N1250      N1251   1.327       .  A
N1250      N1256   1.316       .  A
N1250     Mn1258   2.228       .  S
N1251      C1259   1.360       .  A
N1252      N1254   1.316       .  A
N1252      N1253   1.319       .  A
N1252     Mn1850   2.192       .  S
N1253      C1260   1.352       .  A
N1254      N1255   1.324       .  A
N1254     Mn1838   2.222       .  S
N1255      C1260   1.355       .  A
N1256      N1257   1.314       .  A
N1256     Mn1270   2.177   1_545  S
N1257      C1259   1.344       .  A
Mn1258     N1809   2.216   1_545  S
Mn1258     N1834   2.212   1_545  S
Mn1258    Cl1271   2.570       .  S
C1259      C1693   1.468       .  S
C1260      C1698   1.479       .  S
N1261      N1262   1.323       .  A
N1261      N1267   1.316       .  A
N1261     Mn1849   2.216       .  S
N1262      C1272   1.354       .  A
N1263      N1264   1.316       .  A
N1263      N1265   1.316       .  A
N1263     Mn1270   2.186   1_545  S
N1264      C1273   1.346       .  A
N1265      N1266   1.325       .  A
N1265     Mn1269   2.219       .  S
N1266      C1273   1.358       .  A
N1267      N1268   1.317       .  A
N1267     Mn1850   2.188       .  S
N1268      C1272   1.351       .  A
Mn1269     N1823   2.209   1_545  S
Mn1269     N1841   2.217   1_545  S
Mn1269    Cl1271   2.571       .  S
Mn1270     N1832   2.185       .  S
Mn1270     N1847   2.177       .  S
Mn1270    Cl1271   2.519   1_565  S
C1272      C1706   1.475       .  S
C1273      C1701   1.468       .  S
N1274      C1279   1.354       .  A
N1274      C1278   1.355       .  A
N1274      H1306   1.038       .  S
N1275      C1282   1.351       .  A
N1275      C1283   1.351       .  A
N1276      C1281   1.353       .  A
N1276      C1280   1.355       .  A
N1276      H1307   1.038       .  S
N1277      C1284   1.352       .  A
N1277      C1285   1.353       .  A
C1278      C1286   1.389       .  A
C1278      C1294   1.419       .  A
C1279      C1295   1.418       .  A
C1279      C1287   1.386       .  A
C1280      C1288   1.389       .  A
C1280      C1297   1.418       .  A
C1281      C1296   1.412       .  A
C1281      C1289   1.385       .  A
C1282      C1294   1.415       .  A
C1282      C1290   1.387       .  A
C1283      C1297   1.412       .  A
C1283      C1291   1.386       .  A
C1284      C1292   1.387       .  A
C1284      C1295   1.413       .  A
C1285      C1293   1.385       .  A
C1285      C1296   1.412       .  A
C1286      C1287   1.373       .  A
C1286      H1298   1.082       .  S
C1287      H1299   1.082       .  S
C1288      C1289   1.373       .  A
C1288      H1300   1.082       .  S
C1289      H1301   1.082       .  S
C1290      C1291   1.376       .  A
C1290      H1302   1.082       .  S
C1291      H1303   1.082       .  S
C1292      C1293   1.375       .  A
C1292      H1304   1.082       .  S
C1293      H1305   1.082       .  S
C1294      C1685   1.487       .  S
C1295      C1694   1.494       .  S
C1296      C1697   1.484       .  S
C1297      C1689   1.483       .  S
N1308      C1313   1.355       .  A
N1308      C1312   1.353       .  A
N1308      H1340   1.038       .  S
N1309      C1316   1.350       .  A
N1309      C1317   1.350       .  A
N1310      C1315   1.354       .  A
N1310      C1314   1.354       .  A
N1310      H1341   1.039       .  S
N1311      C1318   1.350       .  A
N1311      C1319   1.350       .  A
C1312      C1320   1.385       .  A
C1312      C1328   1.411       .  A
C1313      C1329   1.419       .  A
C1313      C1321   1.389       .  A
C1314      C1322   1.385       .  A
C1314      C1331   1.415       .  A
C1315      C1330   1.418       .  A
C1315      C1323   1.390       .  A
C1316      C1328   1.409       .  A
C1316      C1324   1.386       .  A
C1317      C1331   1.409       .  A
C1317      C1325   1.386       .  A
C1318      C1326   1.386       .  A
C1318      C1329   1.412       .  A
C1319      C1327   1.387       .  A
C1319      C1330   1.413       .  A
C1320      C1321   1.373       .  A
C1320      H1332   1.082       .  S
C1321      H1333   1.082       .  S
C1322      C1323   1.373       .  A
C1322      H1334   1.082       .  S
C1323      H1335   1.082       .  S
C1324      C1325   1.375       .  A
C1324      H1336   1.082       .  S
C1325      H1337   1.082       .  S
C1326      C1327   1.377       .  A
C1326      H1338   1.082       .  S
C1327      H1339   1.082       .  S
C1328      C1705   1.479       .  S
C1329      C1681   1.485       .  S
C1330      C1678   1.482       .  S
C1331      C1702   1.487       .  S
N1342      N1343   1.316       .  A
N1342      N1348   1.317       .  A
N1343      C1350   1.347       .  A
N1344      N1346   1.317       .  A
N1344      N1345   1.316       .  A
N1344     Mn1360   2.197       .  S
N1345      C1351   1.348       .  A
N1346      N1347   1.329       .  A
N1347      C1351   1.362       .  A
N1348      N1349   1.326       .  A
N1348     Mn1360   2.222       .  S
N1349      C1350   1.359       .  A
C1350      C1729   1.476       .  S
C1351      C1661   1.489       .  S
N1352      N1358   1.316       .  A
N1352      N1353   1.328       .  A
N1353      C1361   1.360       .  A
N1354      N1355   1.326       .  A
N1354      N1356   1.316       .  A
N1354     Mn1940   2.223       .  S
N1355      C1362   1.359       .  A
N1356      N1357   1.316       .  A
N1357      C1362   1.348       .  A
N1358      N1359   1.314       .  A
N1358     Mn1940   2.182       .  S
N1359      C1361   1.346       .  A
Mn1360     N1934   2.222       .  S
Mn1360     N1938   2.172       .  S
C1361      C1669   1.481       .  S
C1362      C1726   1.479       .  S
N1363      N1364   1.328       .  A
N1363      N1369   1.316       .  A
N1363     Mn1371   2.224       .  S
N1364      C1372   1.360       .  A
N1365      N1367   1.317       .  A
N1365      N1366   1.326       .  A
N1365     Mn1383   2.211       .  S
N1366      C1373   1.358       .  A
N1367      N1368   1.314       .  A
N1367     Mn1371   2.191       .  S
N1368      C1373   1.347       .  A
N1369      N1370   1.312       .  A
N1369     Mn1383   2.180       .  S
N1370      C1372   1.345       .  A
Mn1371    Cl1384   2.553       .  S
C1372      C1665   1.478       .  S
C1373      C1713   1.475       .  S
N1374      N1375   1.314       .  A
N1374      N1380   1.316       .  A
N1374     Mn1382   2.187       .  S
N1375      C1385   1.347       .  A
N1376      N1377   1.314       .  A
N1376      N1378   1.317       .  A
N1376     Mn1963   2.187       .  S
N1377      C1386   1.347       .  A
N1378      N1379   1.328       .  A
N1378     Mn1382   2.229       .  S
N1379      C1386   1.360       .  A
N1380      N1381   1.329       .  A
N1380     Mn1963   2.227       .  S
N1381      C1385   1.361       .  A
Mn1382    Cl1964   2.547       .  S
Mn1383     N1956   2.178       .  S
Mn1383     N1960   2.223       .  S
Mn1383    Cl1384   2.538       .  S
Cl1384    Mn1962   2.550       .  S
C1385      C1710   1.484       .  S
C1386      C1674   1.483       .  S
N1387      N1388   1.327       .  A
N1387      N1393   1.316       .  A
N1388      C1395   1.359       .  A
N1389      N1391   1.316       .  A
N1389      N1390   1.317       .  A
N1389     Mn1405   2.190       .  S
N1390      C1396   1.348       .  A
N1391      N1392   1.325       .  A
N1391     Mn1416   2.218       .  S
N1392      C1396   1.357       .  A
N1393      N1394   1.316       .  A
N1394      C1395   1.347       .  A
C1395      C1657   1.472       .  S
C1396      C1653   1.471       .  S
N1397      N1403   1.316       .  A
N1397      N1398   1.328       .  A
N1397     Mn1427   2.235       .  S
N1398      C1406   1.360       .  A
N1399      N1400   1.317       .  A
N1399      N1401   1.317       .  A
N1400      C1407   1.348       .  A
N1401      N1402   1.326       .  A
N1402      C1407   1.357       .  A
N1403      N1404   1.314       .  A
N1403     Mn1405   2.176       .  S
N1404      C1406   1.345       .  A
Mn1405    Cl1429   2.520       .  S
C1406      C1645   1.469       .  S
C1407      C1649   1.471       .  S
N1408      N1409   1.327       .  A
N1408      N1414   1.316       .  A
N1408     Mn1416   2.227   1_554  S
N1409      C1417   1.359       .  A
N1410      N1412   1.316       .  A
N1410      N1411   1.316       .  A
N1411      C1418   1.350       .  A
N1412      N1413   1.323       .  A
N1413      C1418   1.353       .  A
N1414      N1415   1.315       .  A
N1414     Mn1428   2.183       .  S
N1415      C1417   1.345       .  A
Mn1416    Cl1429   2.574       .  S
C1417      C1629   1.470       .  S
C1418      C1633   1.469       .  S
N1419      N1420   1.326       .  A
N1419      N1425   1.314       .  A
N1420      C1430   1.359       .  A
N1421      N1422   1.321       .  A
N1421      N1423   1.315       .  A
N1421     Mn1428   2.210       .  S
N1422      C1431   1.354       .  A
N1423      N1424   1.322       .  A
N1423     Mn1427   2.198   1_554  S
N1424      C1431   1.352       .  A
N1425      N1426   1.315       .  A
N1426      C1430   1.345       .  A
Mn1427    Cl1429   2.576       .  S
Mn1428    Cl1429   2.517   1_554  S
C1430      C1642   1.468       .  S
C1431      C1638   1.477       .  S
N1432      C1437   1.350       .  A
N1432      C1436   1.356       .  A
N1432      H1464   1.042       .  S
N1433      C1440   1.349       .  A
N1433      C1441   1.349       .  A
N1434      C1439   1.351       .  A
N1434      C1438   1.354       .  A
N1434      H1465   1.042       .  S
N1435      C1442   1.352       .  A
N1435      C1443   1.354       .  A
C1436      C1444   1.389       .  A
C1436      C1452   1.419       .  A
C1437      C1453   1.413       .  A
C1437      C1445   1.385       .  A
C1438      C1446   1.389       .  A
C1438      C1455   1.417       .  A
C1439      C1454   1.412       .  A
C1439      C1447   1.385       .  A
C1440      C1452   1.408       .  A
C1440      C1448   1.386       .  A
C1441      C1455   1.408       .  A
C1441      C1449   1.387       .  A
C1442      C1450   1.386       .  A
C1442      C1453   1.413       .  A
C1443      C1451   1.386       .  A
C1443      C1454   1.413       .  A
C1444      C1445   1.378       .  A
C1444      H1456   1.081       .  S
C1445      H1457   1.082       .  S
C1446      C1447   1.377       .  A
C1446      H1458   1.081       .  S
C1447      H1459   1.082       .  S
C1448      C1449   1.372       .  A
C1448      H1460   1.082       .  S
C1449      H1461   1.082       .  S
C1450      C1451   1.377       .  A
C1450      H1462   1.082       .  S
C1451      H1463   1.082       .  S
C1452      C1625   1.492       .  S
C1453      C1650   1.491       .  S
C1454      C1646   1.496       .  S
C1455      C1621   1.489       .  S
N1466      C1471   1.355       .  A
N1466      C1470   1.354       .  A
N1466      H1498   1.040       .  S
N1467      C1474   1.350       .  A
N1467      C1475   1.354       .  A
N1468      C1473   1.351       .  A
N1468      C1472   1.351       .  A
N1468      H1499   1.040       .  S
N1469      C1476   1.351       .  A
N1469      C1477   1.354       .  A
C1470      C1478   1.388       .  A
C1470      C1486   1.416       .  A
C1471      C1487   1.417       .  A
C1471      C1479   1.387       .  A
C1472      C1480   1.387       .  A
C1472      C1489   1.409       .  A
C1473      C1488   1.409       .  A
C1473      C1481   1.387       .  A
C1474      C1486   1.414       .  A
C1474      C1482   1.385       .  A
C1475      C1489   1.417       .  A
C1475      C1483   1.387       .  A
C1476      C1484   1.385       .  A
C1476      C1487   1.414       .  A
C1477      C1485   1.386       .  A
C1477      C1488   1.416       .  A
C1478      C1479   1.379       .  A
C1478      H1490   1.082       .  S
C1479      H1491   1.082       .  S
C1480      C1481   1.373       .  A
C1480      H1492   1.082       .  S
C1481      H1493   1.082       .  S
C1482      C1483   1.374       .  A
C1482      H1494   1.082       .  S
C1483      H1495   1.081       .  S
C1484      C1485   1.373       .  A
C1484      H1496   1.082       .  S
C1485      H1497   1.081       .  S
C1486      C1654   1.490       .  S
C1487      C1658   1.494       .  S
C1488      C1618   1.488       .  S
C1489      C1614   1.489       .  S
N1500      N1501   1.326       .  A
N1500      N1506   1.315       .  A
N1500     Mn1529   2.222       .  S
N1501      C1508   1.357       .  A
N1502      N1504   1.314       .  A
N1502      N1503   1.314       .  A
N1502     Mn2098   2.177   1_545  S
N1503      C1509   1.347       .  A
N1504      N1505   1.326       .  A
N1504     Mn2109   2.220   1_545  S
N1505      C1509   1.358       .  A
N1506      N1507   1.318       .  A
N1506     Mn1518   2.188       .  S
N1507      C1508   1.350       .  A
C1508      C1682   1.479       .  S
C1509      C1677   1.476       .  S
N1510      N1516   1.314       .  A
N1510      N1511   1.326       .  A
N1510     Mn2120   2.222   1_545  S
N1511      C1519   1.358       .  A
N1512      N1513   1.315       .  A
N1512      N1514   1.315       .  A
N1513      C1520   1.348       .  A
N1514      N1515   1.326       .  A
N1514     Mn1540   2.226       .  S
N1515      C1520   1.358       .  A
N1516      N1517   1.316       .  A
N1517      C1519   1.349       .  A
Mn1518     N2082   2.180       .  S
Mn1518    Cl1542   2.527       .  S
C1519      C1686   1.480       .  S
C1520      C1690   1.478       .  S
N1521      N1522   1.321       .  A
N1521      N1527   1.316       .  A
N1521     Mn2109   2.209   1_545  S
N1522      C1530   1.356       .  A
N1523      N1525   1.316       .  A
N1523      N1524   1.320       .  A
N1523     Mn1541   2.199       .  S
N1524      C1531   1.351       .  A
N1525      N1526   1.319       .  A
N1525     Mn1529   2.207       .  S
N1526      C1531   1.355       .  A
N1527      N1528   1.320       .  A
N1527     Mn2121   2.198   1_545  S
N1528      C1530   1.350       .  A
Mn1529     N2084   2.226       .  S
Mn1529     N2101   2.204       .  S
Mn1529    Cl1542   2.561       .  S
C1530      C1613   1.474       .  S
C1531      C1622   1.474       .  S
N1532      N1533   1.320       .  A
N1532      N1538   1.316       .  A
N1532     Mn1540   2.207       .  S
N1533      C1543   1.356       .  A
N1534      N1535   1.320       .  A
N1534      N1536   1.316       .  A
N1535      C1544   1.351       .  A
N1536      N1537   1.319       .  A
N1536     Mn2120   2.202   1_545  S
N1537      C1544   1.355       .  A
N1538      N1539   1.320       .  A
N1539      C1543   1.351       .  A
Mn1540     N2090   2.220       .  S
Mn1540     N2116   2.207       .  S
Mn1541     N2107   2.200       .  S
Mn1541    Cl1542   2.523       .  S
C1543      C1626   1.476       .  S
C1544      C1617   1.473       .  S
N1545      C1550   1.354       .  A
N1545      C1549   1.356       .  A
N1545      H1577   1.037       .  S
N1546      C1553   1.352       .  A
N1546      C1554   1.348       .  A
N1547      C1552   1.354       .  A
N1547      C1551   1.353       .  A
N1547      H1578   1.039       .  S
N1548      C1555   1.353       .  A
N1548      C1556   1.352       .  A
C1549      C1557   1.387       .  A
C1549      C1565   1.419       .  A
C1550      C1566   1.419       .  A
C1550      C1558   1.388       .  A
C1551      C1559   1.387       .  A
C1551      C1568   1.413       .  A
C1552      C1567   1.415       .  A
C1552      C1560   1.387       .  A
C1553      C1565   1.414       .  A
C1553      C1561   1.387       .  A
C1554      C1568   1.409       .  A
C1554      C1562   1.386       .  A
C1555      C1563   1.386       .  A
C1555      C1566   1.415       .  A
C1556      C1564   1.386       .  A
C1556      C1567   1.416       .  A
C1557      C1558   1.375       .  A
C1557      H1569   1.082       .  S
C1558      H1570   1.082       .  S
C1559      C1560   1.376       .  A
C1559      H1571   1.082       .  S
C1560      H1572   1.082       .  S
C1561      C1562   1.370       .  A
C1561      H1573   1.081       .  S
C1562      H1574   1.082       .  S
C1563      C1564   1.373       .  A
C1563      H1575   1.082       .  S
C1564      H1576   1.082       .  S
C1565      C1670   1.493       .  S
C1566      C1673   1.490       .  S
C1567      C1630   1.491       .  S
C1568      C1634   1.475       .  S
N1579      C1584   1.353       .  A
N1579      C1583   1.356       .  A
N1579      H1611   1.039       .  S
N1580      C1587   1.350       .  A
N1580      C1588   1.350       .  A
N1581      C1586   1.356       .  A
N1581      C1585   1.355       .  A
N1581      H1612   1.038       .  S
N1582      C1589   1.351       .  A
N1582      C1590   1.355       .  A
C1583      C1591   1.386       .  A
C1583      C1599   1.414       .  A
C1584      C1600   1.416       .  A
C1584      C1592   1.388       .  A
C1585      C1593   1.387       .  A
C1585      C1602   1.419       .  A
C1586      C1601   1.420       .  A
C1586      C1594   1.388       .  A
C1587      C1599   1.407       .  A
C1587      C1595   1.385       .  A
C1588      C1602   1.412       .  A
C1588      C1596   1.387       .  A
C1589      C1597   1.387       .  A
C1589      C1600   1.417       .  A
C1590      C1598   1.385       .  A
C1590      C1601   1.416       .  A
C1591      C1592   1.378       .  A
C1591      H1603   1.082       .  S
C1592      H1604   1.082       .  S
C1593      C1594   1.375       .  A
C1593      H1605   1.082       .  S
C1594      H1606   1.082       .  S
C1595      C1596   1.371       .  A
C1595      H1607   1.082       .  S
C1596      H1608   1.081       .  S
C1597      C1598   1.374       .  A
C1597      H1609   1.082       .  S
C1598      H1610   1.082       .  S
C1599      C1637   1.484       .  S
C1600      C1641   1.487       .  S
C1601      C1662   1.497       .  S
C1602      C1666   1.488       .  S
C1613      C1614   1.342       .  D
C1613      H1615   1.086       .  S
C1614      H1616   1.088       .  S
C1617      C1618   1.343       .  D
C1617      H1619   1.086       .  S
C1618      H1620   1.087       .  S
C1621      C1622   1.343       .  D
C1621      H1623   1.087       .  S
C1622      H1624   1.086       .  S
C1625      C1626   1.343       .  D
C1625      H1627   1.087       .  S
C1626      H1628   1.086       .  S
C1629      C1630   1.340       .  D
C1629      H1631   1.088       .  S
C1630      H1632   1.086       .  S
C1633      C1634   1.340       .  D
C1633      H1635   1.086       .  S
C1634      H1636   1.087       .  S
C1637      C1638   1.341       .  D
C1637      H1639   1.086       .  S
C1638      H1640   1.086       .  S
C1641      C1642   1.339       .  D
C1641      H1643   1.086       .  S
C1642      H1644   1.088       .  S
C1645      C1646   1.343       .  D
C1645      H1647   1.087       .  S
C1646      H1648   1.086       .  S
C1649      C1650   1.343       .  D
C1649      H1651   1.087       .  S
C1650      H1652   1.086       .  S
C1653      C1654   1.342       .  D
C1653      H1655   1.088       .  S
C1654      H1656   1.086       .  S
C1657      C1658   1.343       .  D
C1657      H1659   1.087       .  S
C1658      H1660   1.086       .  S
C1661      C1662   1.353       .  D
C1661      H1663   1.086       .  S
C1662      H1664   1.087       .  S
C1665      C1666   1.351       .  D
C1665      H1667   1.086       .  S
C1666      H1668   1.087       .  S
C1669      C1670   1.352       .  D
C1669      H1671   1.086       .  S
C1670      H1672   1.087       .  S
C1673      C1674   1.350       .  D
C1673      H1675   1.087       .  S
C1674      H1676   1.086       .  S
C1677      C1678   1.346       .  D
C1677      H1679   1.086       .  S
C1678      H1680   1.087       .  S
C1681      C1682   1.345       .  D
C1681      H1683   1.087       .  S
C1682      H1684   1.086       .  S
C1685      C1686   1.348       .  D
C1685      H1687   1.086       .  S
C1686      H1688   1.086       .  S
C1689      C1690   1.345       .  D
C1689      H1691   1.087       .  S
C1690      H1692   1.086       .  S
C1693      C1694   1.341       .  D
C1693      H1695   1.088       .  S
C1694      H1696   1.086       .  S
C1697      C1698   1.344       .  D
C1697      H1699   1.086       .  S
C1698      H1700   1.086       .  S
C1701      C1702   1.339       .  D
C1701      H1703   1.088       .  S
C1702      H1704   1.086       .  S
C1705      C1706   1.342       .  D
C1705      H1707   1.086       .  S
C1706      H1708   1.086       .  S
C1709      C1710   1.352       .  D
C1709      H1711   1.087       .  S
C1710      H1712   1.086       .  S
C1713      C1714   1.349       .  D
C1713      H1715   1.086       .  S
C1714      H1716   1.087       .  S
C1717      C1718   1.346       .  D
C1717      H1719   1.087       .  S
C1718      H1720   1.086       .  S
C1721      C1722   1.343       .  D
C1721      H1723   1.086       .  S
C1722      H1724   1.087       .  S
C1725      C1726   1.350       .  D
C1725      H1727   1.086       .  S
C1726      H1728   1.086       .  S
C1729      C1730   1.352       .  D
C1729      H1731   1.083       .  S
C1730      H1732   1.087       .  S
C1733      C1734   1.345       .  D
C1733      H1735   1.087       .  S
C1734      H1736   1.086       .  S
C1737      C1738   1.346       .  D
C1737      H1739   1.086       .  S
C1738      H1740   1.086       .  S
N1741      C1746   1.354       .  A
N1741      C1745   1.352       .  A
N1741      H1773   1.035       .  S
N1742      C1749   1.353       .  A
N1742      C1750   1.353       .  A
N1743      C1748   1.358       .  A
N1743      C1747   1.357       .  A
N1743      H1774   1.040       .  S
N1744      C1751   1.349       .  A
N1744      C1752   1.350       .  A
C1745      C1753   1.387       .  A
C1745      C1761   1.415       .  A
C1746      C1762   1.416       .  A
C1746      C1754   1.387       .  A
C1747      C1755   1.389       .  A
C1747      C1764   1.423       .  A
C1748      C1763   1.423       .  A
C1748      C1756   1.388       .  A
C1749      C1761   1.417       .  A
C1749      C1757   1.385       .  A
C1750      C1764   1.418       .  A
C1750      C1758   1.389       .  A
C1751      C1759   1.386       .  A
C1751      C1762   1.410       .  A
C1752      C1760   1.386       .  A
C1752      C1763   1.411       .  A
C1753      C1754   1.378       .  A
C1753      H1765   1.082       .  S
C1754      H1766   1.082       .  S
C1755      C1756   1.375       .  A
C1755      H1767   1.081       .  S
C1756      H1768   1.082       .  S
C1757      C1758   1.369       .  A
C1757      H1769   1.082       .  S
C1758      H1770   1.080       .  S
C1759      C1760   1.372       .  A
C1759      H1771   1.082       .  S
C1760      H1772   1.082       .  S
C1761      C2313   1.482       .  S
C1762      C2318   1.483       .  S
C1763      C2310   1.500       .  S
C1764      C2305   1.494       .  S
N1775      C1780   1.354       .  A
N1775      C1779   1.354       .  A
N1775      H1807   1.039       .  S
N1776      C1783   1.352       .  A
N1776      C1784   1.352       .  A
N1777      C1782   1.354       .  A
N1777      C1781   1.352       .  A
N1777      H1808   1.040       .  S
N1778      C1785   1.353       .  A
N1778      C1786   1.354       .  A
C1779      C1787   1.388       .  A
C1779      C1795   1.417       .  A
C1780      C1796   1.416       .  A
C1780      C1788   1.386       .  A
C1781      C1789   1.388       .  A
C1781      C1798   1.414       .  A
C1782      C1797   1.414       .  A
C1782      C1790   1.386       .  A
C1783      C1795   1.413       .  A
C1783      C1791   1.387       .  A
C1784      C1798   1.412       .  A
C1784      C1792   1.386       .  A
C1785      C1793   1.387       .  A
C1785      C1796   1.416       .  A
C1786      C1794   1.386       .  A
C1786      C1797   1.415       .  A
C1787      C1788   1.376       .  A
C1787      H1799   1.082       .  S
C1788      H1800   1.082       .  S
C1789      C1790   1.372       .  A
C1789      H1801   1.081       .  S
C1790      H1802   1.082       .  S
C1791      C1792   1.376       .  A
C1791      H1803   1.082       .  S
C1792      H1804   1.083       .  S
C1793      C1794   1.371       .  A
C1793      H1805   1.082       .  S
C1794      H1806   1.082       .  S
C1795      C2297   1.484       .  S
C1796      C2289   1.489       .  S
C1797      C2294   1.491       .  S
C1798      C2302   1.481       .  S
N1809      N1810   1.324       .  A
N1809      N1815   1.315       .  A
N1810      C1817   1.355       .  A
N1811      N1813   1.314       .  A
N1811      N1812   1.314       .  A
N1811     Mn1827   2.174       .  S
N1812      C1818   1.347       .  A
N1813      N1814   1.327       .  A
N1813     Mn1838   2.228       .  S
N1814      C1818   1.359       .  A
N1815      N1816   1.317       .  A
N1816      C1817   1.349       .  A
C1817      C2317   1.475       .  S
C1818      C2314   1.478       .  S
N1819      N1825   1.314       .  A
N1819      N1820   1.326       .  A
N1819     Mn1849   2.223       .  S
N1820      C1828   1.358       .  A
N1821      N1822   1.317       .  A
N1821      N1823   1.315       .  A
N1822      C1829   1.350       .  A
N1823      N1824   1.324       .  A
N1824      C1829   1.354       .  A
N1825      N1826   1.316       .  A
N1825     Mn1827   2.184       .  S
N1826      C1828   1.348       .  A
Mn1827    Cl1851   2.517       .  S
C1828      C2298   1.478       .  S
C1829      C2301   1.473       .  S
N1830      N1831   1.327       .  A
N1830      N1836   1.316       .  A
N1830     Mn1838   2.227       .  S
N1831      C1839   1.359       .  A
N1832      N1834   1.314       .  A
N1832      N1833   1.317       .  A
N1833      C1840   1.351       .  A
N1834      N1835   1.323       .  A
N1835      C1840   1.354       .  A
N1836      N1837   1.315       .  A
N1836     Mn1850   2.185       .  S
N1837      C1839   1.345       .  A
Mn1838    Cl1851   2.570       .  S
C1839      C2273   1.469       .  S
C1840      C2278   1.475       .  S
N1841      N1842   1.324       .  A
N1841      N1847   1.315       .  A
N1842      C1852   1.355       .  A
N1843      N1844   1.315       .  A
N1843      N1845   1.316       .  A
N1843     Mn1850   2.184       .  S
N1844      C1853   1.345       .  A
N1845      N1846   1.324       .  A
N1845     Mn1849   2.213       .  S
N1846      C1853   1.357       .  A
N1847      N1848   1.316       .  A
N1848      C1852   1.349       .  A
Mn1849    Cl1851   2.569       .  S
Mn1850    Cl1851   2.524       .  S
C1852      C2286   1.473       .  S
C1853      C2281   1.465       .  S
N1854      C1859   1.355       .  A
N1854      C1858   1.354       .  A
N1854      H1886   1.039       .  S
N1855      C1862   1.350       .  A
N1855      C1863   1.350       .  A
N1856      C1861   1.353       .  A
N1856      C1860   1.356       .  A
N1856      H1887   1.037       .  S
N1857      C1864   1.352       .  A
N1857      C1865   1.351       .  A
C1858      C1866   1.389       .  A
C1858      C1874   1.417       .  A
C1859      C1875   1.415       .  A
C1859      C1867   1.385       .  A
C1860      C1868   1.389       .  A
C1860      C1877   1.419       .  A
C1861      C1876   1.412       .  A
C1861      C1869   1.386       .  A
C1862      C1874   1.414       .  A
C1862      C1870   1.387       .  A
C1863      C1877   1.413       .  A
C1863      C1871   1.386       .  A
C1864      C1872   1.386       .  A
C1864      C1875   1.411       .  A
C1865      C1873   1.386       .  A
C1865      C1876   1.411       .  A
C1866      C1867   1.372       .  A
C1866      H1878   1.082       .  S
C1867      H1879   1.082       .  S
C1868      C1869   1.373       .  A
C1868      H1880   1.082       .  S
C1869      H1881   1.083       .  S
C1870      C1871   1.377       .  A
C1870      H1882   1.082       .  S
C1871      H1883   1.082       .  S
C1872      C1873   1.375       .  A
C1872      H1884   1.082       .  S
C1873      H1885   1.082       .  S
C1874      C2265   1.483       .  S
C1875      C2274   1.493       .  S
C1876      C2277   1.479       .  S
C1877      C2269   1.485       .  S
N1888      C1893   1.354       .  A
N1888      C1892   1.353       .  A
N1888      H1920   1.037       .  S
N1889      C1896   1.351       .  A
N1889      C1897   1.350       .  A
N1890      C1895   1.355       .  A
N1890      C1894   1.354       .  A
N1890      H1921   1.039       .  S
N1891      C1898   1.350       .  A
N1891      C1899   1.351       .  A
C1892      C1900   1.385       .  A
C1892      C1908   1.411       .  A
C1893      C1909   1.418       .  A
C1893      C1901   1.390       .  A
C1894      C1902   1.386       .  A
C1894      C1911   1.416       .  A
C1895      C1910   1.417       .  A
C1895      C1903   1.388       .  A
C1896      C1908   1.409       .  A
C1896      C1904   1.386       .  A
C1897      C1911   1.410       .  A
C1897      C1905   1.387       .  A
C1898      C1906   1.386       .  A
C1898      C1909   1.414       .  A
C1899      C1907   1.386       .  A
C1899      C1910   1.414       .  A
C1900      C1901   1.373       .  A
C1900      H1912   1.082       .  S
C1901      H1913   1.082       .  S
C1902      C1903   1.372       .  A
C1902      H1914   1.082       .  S
C1903      H1915   1.082       .  S
C1904      C1905   1.374       .  A
C1904      H1916   1.082       .  S
C1905      H1917   1.082       .  S
C1906      C1907   1.377       .  A
C1906      H1918   1.082       .  S
C1907      H1919   1.082       .  S
C1908      C2285   1.478       .  S
C1909      C2261   1.482       .  S
C1910      C2258   1.487       .  S
C1911      C2282   1.486       .  S
N1922      N1923   1.314       .  A
N1922      N1928   1.316       .  A
N1923      C1930   1.345       .  A
N1924      N1926   1.317       .  A
N1924      N1925   1.315       .  A
N1924     Mn1940   2.191   1_565  S
N1925      C1931   1.347       .  A
N1926      N1927   1.327       .  A
N1927      C1931   1.360       .  A
N1928      N1929   1.327       .  A
N1928     Mn1940   2.223   1_565  S
N1929      C1930   1.359       .  A
C1930      C2309   1.473       .  S
C1931      C2241   1.481       .  S
N1932      N1938   1.316       .  A
N1932      N1933   1.330       .  A
N1933      C1941   1.363       .  A
N1934      N1935   1.326       .  A
N1934      N1936   1.316       .  A
N1935      C1942   1.359       .  A
N1936      N1937   1.315       .  A
N1937      C1942   1.347       .  A
N1938      N1939   1.312       .  A
N1939      C1941   1.344       .  A
C1941      C2249   1.483       .  S
C1942      C2306   1.477       .  S
N1943      N1944   1.327       .  A
N1943      N1949   1.317       .  A
N1943     Mn1951   2.226       .  S
N1944      C1952   1.359       .  A
N1945      N1947   1.317       .  A
N1945      N1946   1.326       .  A
N1945     Mn1963   2.218   1_565  S
N1946      C1953   1.358       .  A
N1947      N1948   1.315       .  A
N1947     Mn1951   2.194       .  S
N1948      C1953   1.348       .  A
N1949      N1950   1.316       .  A
N1949     Mn1963   2.189   1_565  S
N1950      C1952   1.346       .  A
Mn1951    Cl1964   2.549   1_565  S
C1952      C2245   1.476       .  S
C1953      C2293   1.478       .  S
N1954      N1955   1.315       .  A
N1954      N1960   1.316       .  A
N1954     Mn1962   2.189       .  S
N1955      C1965   1.348       .  A
N1956      N1957   1.312       .  A
N1956      N1958   1.315       .  A
N1957      C1966   1.345       .  A
N1958      N1959   1.329       .  A
N1958     Mn1962   2.225       .  S
N1959      C1966   1.361       .  A
N1960      N1961   1.327       .  A
N1961      C1965   1.360       .  A
Mn1963    Cl1964   2.549       .  S
C1965      C2290   1.481       .  S
C1966      C2254   1.481       .  S
N1967      N1968   1.326       .  A
N1967      N1973   1.316       .  A
N1968      C1975   1.357       .  A
N1969      N1971   1.316       .  A
N1969      N1970   1.317       .  A
N1969     Mn1985   2.186       .  S
N1970      C1976   1.348       .  A
N1971      N1972   1.325       .  A
N1971     Mn1996   2.224       .  S
N1972      C1976   1.357       .  A
N1973      N1974   1.316       .  A
N1974      C1975   1.347       .  A
C1975      C2237   1.470       .  S
C1976      C2233   1.471       .  S
N1977      N1983   1.315       .  A
N1977      N1978   1.324       .  A
N1977     Mn2007   2.211   1_556  S
N1978      C1986   1.354       .  A
N1979      N1980   1.316       .  A
N1979      N1981   1.317       .  A
N1980      C1987   1.348       .  A
N1981      N1982   1.324       .  A
N1982      C1987   1.356       .  A
N1983      N1984   1.315       .  A
N1983     Mn1985   2.181       .  S
N1984      C1986   1.350       .  A
Mn1985    Cl2009   2.514       .  S
C1986      C2225   1.473       .  S
C1987      C2229   1.468       .  S
N1988      N1989   1.329       .  A
N1988      N1994   1.315       .  A
N1988     Mn1996   2.239   1_554  S
N1989      C1997   1.361       .  A
N1990      N1992   1.314       .  A
N1990      N1991   1.316       .  A
N1991      C1998   1.351       .  A
N1992      N1993   1.322       .  A
N1993      C1998   1.351       .  A
N1994      N1995   1.313       .  A
N1994     Mn2008   2.168       .  S
N1995      C1997   1.343       .  A
Mn1996    Cl2009   2.577       .  S
C1997      C2209   1.470       .  S
C1998      C2213   1.468       .  S
N1999      N2000   1.328       .  A
N1999      N2005   1.315       .  A
N2000      C2010   1.360       .  A
N2001      N2002   1.318       .  A
N2001      N2003   1.315       .  A
N2001     Mn2008   2.187       .  S
N2002      C2011   1.351       .  A
N2003      N2004   1.323       .  A
N2003     Mn2007   2.211       .  S
N2004      C2011   1.353       .  A
N2005      N2006   1.314       .  A
N2006      C2010   1.345       .  A
Mn2007    Cl2009   2.578   1_554  S
Mn2008    Cl2009   2.510   1_554  S
C2010      C2222   1.471       .  S
C2011      C2218   1.472       .  S
N2012      C2017   1.352       .  A
N2012      C2016   1.354       .  A
N2012      H2044   1.040       .  S
N2013      C2020   1.349       .  A
N2013      C2021   1.350       .  A
N2014      C2019   1.349       .  A
N2014      C2018   1.353       .  A
N2014      H2045   1.041       .  S
N2015      C2022   1.351       .  A
N2015      C2023   1.351       .  A
C2016      C2024   1.388       .  A
C2016      C2032   1.417       .  A
C2017      C2033   1.414       .  A
C2017      C2025   1.385       .  A
C2018      C2026   1.388       .  A
C2018      C2035   1.416       .  A
C2019      C2034   1.405       .  A
C2019      C2027   1.384       .  A
C2020      C2032   1.409       .  A
C2020      C2028   1.387       .  A
C2021      C2035   1.408       .  A
C2021      C2029   1.386       .  A
C2022      C2030   1.387       .  A
C2022      C2033   1.409       .  A
C2023      C2031   1.385       .  A
C2023      C2034   1.407       .  A
C2024      C2025   1.377       .  A
C2024      H2036   1.082       .  S
C2025      H2037   1.082       .  S
C2026      C2027   1.375       .  A
C2026      H2038   1.081       .  S
C2027      H2039   1.082       .  S
C2028      C2029   1.370       .  A
C2028      H2040   1.082       .  S
C2029      H2041   1.082       .  S
C2030      C2031   1.374       .  A
C2030      H2042   1.082       .  S
C2031      H2043   1.082       .  S
C2032      C2205   1.485       .  S
C2033      C2230   1.487       .  S
C2034      C2226   1.473       .  S
C2035      C2201   1.488       .  S
N2046      C2051   1.354       .  A
N2046      C2050   1.353       .  A
N2046      H2078   1.041       .  S
N2047      C2054   1.350       .  A
N2047      C2055   1.354       .  A
N2048      C2053   1.350       .  A
N2048      C2052   1.350       .  A
N2048      H2079   1.040       .  S
N2049      C2056   1.350       .  A
N2049      C2057   1.352       .  A
C2050      C2058   1.387       .  A
C2050      C2066   1.414       .  A
C2051      C2067   1.415       .  A
C2051      C2059   1.387       .  A
C2052      C2060   1.387       .  A
C2052      C2069   1.408       .  A
C2053      C2068   1.409       .  A
C2053      C2061   1.388       .  A
C2054      C2066   1.412       .  A
C2054      C2062   1.384       .  A
C2055      C2069   1.417       .  A
C2055      C2063   1.387       .  A
C2056      C2064   1.385       .  A
C2056      C2067   1.412       .  A
C2057      C2065   1.387       .  A
C2057      C2068   1.415       .  A
C2058      C2059   1.378       .  A
C2058      H2070   1.082       .  S
C2059      H2071   1.082       .  S
C2060      C2061   1.374       .  A
C2060      H2072   1.083       .  S
C2061      H2073   1.082       .  S
C2062      C2063   1.374       .  A
C2062      H2074   1.082       .  S
C2063      H2075   1.081       .  S
C2064      C2065   1.375       .  A
C2064      H2076   1.082       .  S
C2065      H2077   1.082       .  S
C2066      C2234   1.488       .  S
C2067      C2238   1.491       .  S
C2068      C2198   1.485       .  S
C2069      C2194   1.489       .  S
N2080      N2081   1.325       .  A
N2080      N2086   1.314       .  A
N2080     Mn2109   2.219       .  S
N2081      C2088   1.356       .  A
N2082      N2084   1.315       .  A
N2082      N2083   1.317       .  A
N2083      C2089   1.349       .  A
N2084      N2085   1.326       .  A
N2085      C2089   1.358       .  A
N2086      N2087   1.317       .  A
N2086     Mn2098   2.178       .  S
N2087      C2088   1.350       .  A
C2088      C2262   1.477       .  S
C2089      C2257   1.481       .  S
N2090      N2096   1.315       .  A
N2090      N2091   1.325       .  A
N2091      C2099   1.356       .  A
N2092      N2093   1.318       .  A
N2092      N2094   1.314       .  A
N2093      C2100   1.351       .  A
N2094      N2095   1.325       .  A
N2094     Mn2120   2.217       .  S
N2095      C2100   1.356       .  A
N2096      N2097   1.316       .  A
N2097      C2099   1.349       .  A
Mn2098    Cl2122   2.527       .  S
C2099      C2266   1.477       .  S
C2100      C2270   1.480       .  S
N2101      N2102   1.320       .  A
N2101      N2107   1.316       .  A
N2102      C2110   1.356       .  A
N2103      N2105   1.315       .  A
N2103      N2104   1.321       .  A
N2103     Mn2121   2.205       .  S
N2104      C2111   1.353       .  A
N2105      N2106   1.317       .  A
N2105     Mn2109   2.193       .  S
N2106      C2111   1.353       .  A
N2107      N2108   1.320       .  A
N2108      C2110   1.351       .  A
Mn2109    Cl2122   2.562       .  S
C2110      C2193   1.474       .  S
C2111      C2202   1.470       .  S
N2112      N2113   1.318       .  A
N2112      N2118   1.315       .  A
N2112     Mn2120   2.203       .  S
N2113      C2123   1.355       .  A
N2114      N2115   1.319       .  A
N2114      N2116   1.316       .  A
N2115      C2124   1.350       .  A
N2116      N2117   1.319       .  A
N2117      C2124   1.356       .  A
N2118      N2119   1.320       .  A
N2119      C2123   1.351       .  A
Mn2121    Cl2122   2.522       .  S
C2123      C2206   1.471       .  S
C2124      C2197   1.472       .  S
N2125      C2130   1.353       .  A
N2125      C2129   1.355       .  A
N2125      H2157   1.039       .  S
N2126      C2133   1.351       .  A
N2126      C2134   1.347       .  A
N2127      C2132   1.353       .  A
N2127      C2131   1.353       .  A
N2127      H2158   1.041       .  S
N2128      C2135   1.352       .  A
N2128      C2136   1.352       .  A
C2129      C2137   1.386       .  A
C2129      C2145   1.416       .  A
C2130      C2146   1.417       .  A
C2130      C2138   1.389       .  A
C2131      C2139   1.387       .  A
C2131      C2148   1.411       .  A
C2132      C2147   1.412       .  A
C2132      C2140   1.387       .  A
C2133      C2145   1.410       .  A
C2133      C2141   1.386       .  A
C2134      C2148   1.406       .  A
C2134      C2142   1.386       .  A
C2135      C2143   1.386       .  A
C2135      C2146   1.413       .  A
C2136      C2144   1.386       .  A
C2136      C2147   1.415       .  A
C2137      C2138   1.376       .  A
C2137      H2149   1.083       .  S
C2138      H2150   1.082       .  S
C2139      C2140   1.377       .  A
C2139      H2151   1.082       .  S
C2140      H2152   1.082       .  S
C2141      C2142   1.372       .  A
C2141      H2153   1.081       .  S
C2142      H2154   1.082       .  S
C2143      C2144   1.374       .  A
C2143      H2155   1.082       .  S
C2144      H2156   1.082       .  S
C2145      C2250   1.490       .  S
C2146      C2253   1.485       .  S
C2147      C2210   1.492       .  S
C2148      C2214   1.473       .  S
N2159      C2164   1.353       .  A
N2159      C2163   1.353       .  A
N2159      H2191   1.036       .  S
N2160      C2167   1.350       .  A
N2160      C2168   1.351       .  A
N2161      C2166   1.357       .  A
N2161      C2165   1.360       .  A
N2161      H2192   1.040       .  S
N2162      C2169   1.353       .  A
N2162      C2170   1.354       .  A
C2163      C2171   1.387       .  A
C2163      C2179   1.416       .  A
C2164      C2180   1.416       .  A
C2164      C2172   1.387       .  A
C2165      C2173   1.387       .  A
C2165      C2182   1.424       .  A
C2166      C2181   1.422       .  A
C2166      C2174   1.388       .  A
C2167      C2179   1.411       .  A
C2167      C2175   1.387       .  A
C2168      C2182   1.411       .  A
C2168      C2176   1.385       .  A
C2169      C2177   1.387       .  A
C2169      C2180   1.420       .  A
C2170      C2178   1.387       .  A
C2170      C2181   1.416       .  A
C2171      C2172   1.379       .  A
C2171      H2183   1.082       .  S
C2172      H2184   1.082       .  S
C2173      C2174   1.373       .  A
C2173      H2185   1.082       .  S
C2174      H2186   1.081       .  S
C2175      C2176   1.371       .  A
C2175      H2187   1.082       .  S
C2176      H2188   1.082       .  S
C2177      C2178   1.370       .  A
C2177      H2189   1.082       .  S
C2178      H2190   1.081       .  S
C2179      C2217   1.480       .  S
C2180      C2221   1.490       .  S
C2181      C2242   1.493       .  S
C2182      C2246   1.503       .  S
C2193      C2194   1.342       .  D
C2193      H2195   1.085       .  S
C2194      H2196   1.088       .  S
C2197      C2198   1.342       .  D
C2197      H2199   1.086       .  S
C2198      H2200   1.087       .  S
C2201      C2202   1.344       .  D
C2201      H2203   1.087       .  S
C2202      H2204   1.085       .  S
C2205      C2206   1.342       .  D
C2205      H2207   1.087       .  S
C2206      H2208   1.086       .  S
C2209      C2210   1.339       .  D
C2209      H2211   1.088       .  S
C2210      H2212   1.086       .  S
C2213      C2214   1.338       .  D
C2213      H2215   1.086       .  S
C2214      H2216   1.087       .  S
C2217      C2218   1.342       .  D
C2217      H2219   1.087       .  S
C2218      H2220   1.086       .  S
C2221      C2222   1.340       .  D
C2221      H2223   1.086       .  S
C2222      H2224   1.088       .  S
C2225      C2226   1.341       .  D
C2225      H2227   1.086       .  S
C2226      H2228   1.087       .  S
C2229      C2230   1.340       .  D
C2229      H2231   1.087       .  S
C2230      H2232   1.086       .  S
C2233      C2234   1.341       .  D
C2233      H2235   1.088       .  S
C2234      H2236   1.086       .  S
C2237      C2238   1.342       .  D
C2237      H2239   1.088       .  S
C2238      H2240   1.086       .  S
C2241      C2242   1.351       .  D
C2241      H2243   1.086       .  S
C2242      H2244   1.086       .  S
C2245      C2246   1.352       .  D
C2245      H2247   1.083       .  S
C2246      H2248   1.086       .  S
C2249      C2250   1.353       .  D
C2249      H2251   1.085       .  S
C2250      H2252   1.087       .  S
C2253      C2254   1.350       .  D
C2253      H2255   1.087       .  S
C2254      H2256   1.086       .  S
C2257      C2258   1.347       .  D
C2257      H2259   1.086       .  S
C2258      H2260   1.087       .  S
C2261      C2262   1.344       .  D
C2261      H2263   1.087       .  S
C2262      H2264   1.086       .  S
C2265      C2266   1.345       .  D
C2265      H2267   1.086       .  S
C2266      H2268   1.086       .  S
C2269      C2270   1.344       .  D
C2269      H2271   1.087       .  S
C2270      H2272   1.086       .  S
C2273      C2274   1.341       .  D
C2273      H2275   1.088       .  S
C2274      H2276   1.086       .  S
C2277      C2278   1.342       .  D
C2277      H2279   1.086       .  S
C2278      H2280   1.086       .  S
C2281      C2282   1.339       .  D
C2281      H2283   1.088       .  S
C2282      H2284   1.086       .  S
C2285      C2286   1.343       .  D
C2285      H2287   1.086       .  S
C2286      H2288   1.086       .  S
C2289      C2290   1.349       .  D
C2289      H2291   1.087       .  S
C2290      H2292   1.086       .  S
C2293      C2294   1.349       .  D
C2293      H2295   1.086       .  S
C2294      H2296   1.087       .  S
C2297      C2298   1.347       .  D
C2297      H2299   1.087       .  S
C2298      H2300   1.086       .  S
C2301      C2302   1.344       .  D
C2301      H2303   1.086       .  S
C2302      H2304   1.086       .  S
C2305      C2306   1.350       .  D
C2305      H2307   1.086       .  S
C2306      H2308   1.086       .  S
C2309      C2310   1.351       .  D
C2309      H2311   1.083       .  S
C2310      H2312   1.087       .  S
C2313      C2314   1.347       .  D
C2313      H2315   1.087       .  S
C2314      H2316   1.086       .  S
C2317      C2318   1.345       .  D
C2317      H2319   1.086       .  S
C2318      H2320   1.086       .  S
