geometry optimzed in LAMMPS
_audit_creation_date              2020-11-30 
_audit_creation_method            'lammps2cif' 
_symmetry_space_group_name_H-M    'P1' 
_symmetry_Int_Tables_number       1 
_symmetry_cell_setting            triclinic 
loop_ 
_symmetry_equiv_pos_as_xyz 
  x,y,z 
_cell_length_a                    29.25628535 
_cell_length_b                    29.0276285101391 
_cell_length_c                    28.94966975548064 
_cell_angle_alpha                 90.28123631904829 
_cell_angle_beta                  90.8097330417493 
_cell_angle_gamma                 90.01042114380479 
loop_ 
_atom_site_label 
_atom_site_type_symbol 
_atom_site_fract_x 
_atom_site_fract_y 
_atom_site_fract_z 
_atom_site_charge 
C1          C  0.15613908  0.74673407  0.95948589     0.80600
N2          N  0.18036993  0.75020713  0.00135366    -0.77700
C3          C  0.15757793  0.74724472  0.04330346     0.83100
N4          N  0.11155606  0.74224445  0.04193724    -0.77600
C5          C  0.08750569  0.73955512  0.00166693     0.83200
N6          N  0.10999514  0.74121933  0.96097413    -0.79400
C7          C  0.46732334  0.58812335  0.08656294     0.80600
N8          N  0.46871931  0.54105041  0.08844786    -0.77700
C9          C  0.45348013  0.51541908  0.05162089     0.83100
N10         N  0.43368349  0.53705049  0.01473747    -0.77600
C11         C  0.43256038  0.58376313  0.01294543     0.83200
N12         N  0.45060390  0.60822086  0.04808081    -0.79400
C13         C  0.82627168  0.23592415  0.04096796     0.80600
N14         N  0.87219030  0.24307771  0.03936976    -0.77700
C15         C  0.89443639  0.24619337  0.99860648     0.83100
N16         N  0.87045889  0.24296635  0.95851427    -0.77600
C17         C  0.82493101  0.23594108  0.95706863     0.83200
N18         N  0.80215215  0.23178484  0.99900857    -0.79400
C19         C  0.52240070  0.39502272  0.91310226     0.80600
N20         N  0.51836782  0.44186336  0.91285571    -0.77700
C21         C  0.52296178  0.46596421  0.95323396     0.83100
N22         N  0.53543793  0.44328608  0.99255835    -0.77600
C23         C  0.53869112  0.39660253  0.99293365     0.83200
N24         N  0.53072765  0.37352621  0.95348870    -0.79400
C25         C  0.74659069  0.94966055  0.17023473     0.80600
N26         N  0.73913451  0.95040375  0.12400711    -0.77700
C27         C  0.73452606  0.99012710  0.10002123     0.83100
N28         N  0.73727678  0.03088132  0.12275122    -0.77600
C29         C  0.74517503  0.03336919  0.16887501     0.83200
N30         N  0.75025976  0.99203424  0.19334432    -0.79400
C31         C  0.58854088  0.08114050  0.47590258     0.80600
N32         N  0.61198188  0.04347882  0.46217200    -0.77700
C33         C  0.59068023  0.00473285  0.44827051     0.83100
N34         N  0.54441861  0.00278382  0.45044527    -0.77600
C35         C  0.51998815  0.03910860  0.46636972     0.83200
N36         N  0.54205734  0.07887959  0.47797269    -0.79400
C37         C  0.23602819  0.03256568  0.82949044     0.80600
N38         N  0.23904833  0.03149518  0.87609624    -0.77700
C39         C  0.24045570  0.99147981  0.89968472     0.83100
N40         N  0.24003775  0.95121635  0.87629184    -0.77600
C41         C  0.23689382  0.94929501  0.82985059     0.83200
N42         N  0.23408494  0.99069084  0.80551483    -0.79400
C43         C  0.39324143  0.89614805  0.53599526     0.80600
N44         N  0.36986527  0.93466157  0.54621959    -0.77700
C45         C  0.39053648  0.97471986  0.55601023     0.83100
N46         N  0.43689926  0.97736866  0.55269417    -0.77600
C47         C  0.46141445  0.93963294  0.53912918     0.83200
N48         N  0.43954342  0.89857190  0.53250011    -0.79400
C49         C  0.82026448  0.74978185  0.04390710     0.80600
N50         N  0.79672385  0.75243060  0.00167942    -0.77700
C51         C  0.82047097  0.74874830  0.96027439     0.83100
N52         N  0.86641076  0.74310421  0.96245044    -0.77600
C53         C  0.88951099  0.74139101  0.00319417     0.83200
N54         N  0.86628122  0.74462902  0.04321582    -0.79400
C55         C  0.54304985  0.58585217  0.99178960     0.80600
N56         N  0.54028433  0.53920714  0.99111648    -0.77700
C57         C  0.52192106  0.51676952  0.95389844     0.83100
N58         N  0.50898454  0.54140428  0.91586722    -0.77600
C59         C  0.51173723  0.58842821  0.91656277     0.83200
N60         N  0.52757553  0.60949037  0.95510768    -0.79400
C61         C  0.16055732  0.23488328  0.95503010     0.80600
N62         N  0.18396858  0.22981894  0.99704047    -0.77700
C63         C  0.16052299  0.23384550  0.03851958     0.83100
N64         N  0.11490119  0.24191363  0.03656549    -0.77600
C65         C  0.09192757  0.24619679  0.99591977     0.83200
N66         N  0.11501747  0.24289613  0.95589492    -0.79400
C67         C  0.43641924  0.39400641  0.01504247     0.80600
N68         N  0.43851749  0.44077540  0.01483951    -0.77700
C69         C  0.45318226  0.46450675  0.05292277     0.83100
N70         N  0.46171298  0.44117813  0.09287684    -0.77600
C71         C  0.45829912  0.39422979  0.09352325     0.83200
N72         N  0.44780662  0.37154873  0.05392182    -0.79400
C73         C  0.74780820  0.94873224  0.83020910     0.80600
N74         N  0.75245352  0.99046469  0.80698938    -0.77700
C75         C  0.74894189  0.03209387  0.83109874     0.83100
N76         N  0.74173502  0.03052251  0.87729349    -0.77600
C77         C  0.73788764  0.99007818  0.90013602     0.83200
N78         N  0.74067463  0.95003518  0.87625887    -0.79400
C79         C  0.58068300  0.98064444  0.55614309     0.80600
N80         N  0.53418546  0.97934508  0.55493252    -0.77700
C81         C  0.51186711  0.94172447  0.53758189     0.83100
N82         N  0.53653711  0.90412283  0.52425257    -0.77600
C83         C  0.58317592  0.90551021  0.52532015     0.83200
N84         N  0.60409404  0.94413914  0.54052688    -0.79400
C85         C  0.23160228  0.03185285  0.16904518     0.80600
N86         N  0.23361168  0.03036938  0.12248803    -0.77700
C87         C  0.23323971  0.99018562  0.09880288     0.83100
N88         N  0.23198433  0.94997867  0.12219084    -0.77600
C89         C  0.23005127  0.94874986  0.16884962     0.83200
N90         N  0.22924656  0.99040282  0.19298321    -0.79400
C91         C  0.40250600  0.99669351  0.44377138     0.80600
N92         N  0.37815742  0.03447057  0.45359331    -0.77700
C93         C  0.39823456  0.07452533  0.46572983     0.83100
N94         N  0.44460014  0.07615017  0.47030481    -0.77600
C95         C  0.46981539  0.03729576  0.46345681     0.83200
N96         N  0.44879513  0.99812239  0.44779088    -0.79400
C97         C  0.94945124  0.16019094  0.75238960     0.80600
N98         N  0.95097292  0.11408606  0.74611679    -0.77700
C99         C  0.99082369  0.09078239  0.74235237     0.83100
N100        N  0.03098739  0.11405198  0.74438822    -0.77600
C101        C  0.03270991  0.16033955  0.75105301     0.83200
N102        N  0.99114018  0.18401075  0.75557590    -0.79400
C103        C  0.00931734  0.42645004  0.59347571     0.80600
N104        N  0.00886151  0.43016720  0.54664904    -0.77700
C105        C  0.04399340  0.45103563  0.52451276     0.83100
N106        N  0.08069744  0.46651488  0.54942968    -0.77600
C107        C  0.08141157  0.46287247  0.59634123     0.83200
N108        N  0.04534353  0.44334993  0.61750782    -0.79400
C109        C  0.03377723  0.82261182  0.75590116     0.80600
N110        N  0.03200213  0.86874865  0.74862519    -0.77700
C111        C  0.99176816  0.89159869  0.74509557     0.83100
N112        N  0.95203817  0.86794914  0.74798481    -0.77600
C113        C  0.95077499  0.82191144  0.75502652     0.83200
N114        N  0.99245008  0.79859005  0.75959374    -0.79400
C115        C  0.99127341  0.53702995  0.60021728     0.80600
N116        N  0.95544788  0.52101931  0.62367849    -0.77700
C117        C  0.91656210  0.50753176  0.60205998     0.83100
N118        N  0.91505812  0.50708663  0.55471891    -0.77600
C119        C  0.95231858  0.52042634  0.53024316     0.83200
N120        N  0.98962765  0.53659311  0.55339810    -0.79400
C121        C  0.03325789  0.82060136  0.24665876     0.80600
N122        N  0.99160300  0.79662760  0.24444907    -0.77700
C123        C  0.94999289  0.82053222  0.24747004     0.83100
N124        N  0.95156159  0.86704429  0.25150012    -0.77600
C125        C  0.99164213  0.89035864  0.25235576     0.83200
N126        N  0.03162870  0.86704910  0.25028542    -0.79400
C127        C  0.98769269  0.54532483  0.41001887     0.80600
N128        N  0.94924854  0.53474131  0.38671338    -0.77700
C129        C  0.91080519  0.52151730  0.40795056     0.83100
N130        N  0.91130968  0.51685721  0.45484576    -0.77600
C131        C  0.95083313  0.52460154  0.47927830     0.83200
N132        N  0.98840864  0.54077710  0.45683416    -0.79400
C133        C  0.94997481  0.15883626  0.24421579     0.80600
N134        N  0.95177792  0.11245920  0.24992216    -0.77700
C135        C  0.99203849  0.08929806  0.25105114     0.83100
N136        N  0.03184160  0.11276580  0.24756421    -0.77600
C137        C  0.03309827  0.15909964  0.24241442     0.83200
N138        N  0.99138805  0.18270658  0.24001493    -0.79400
C139        C  0.08295620  0.46055382  0.40326845     0.80600
N140        N  0.08305390  0.46185973  0.45037462    -0.77700
C141        C  0.04402842  0.45230400  0.47363407     0.83100
N142        N  0.00600816  0.43880274  0.44959494    -0.77600
C143        C  0.00551980  0.43842836  0.40264320     0.83200
N144        N  0.04368793  0.45027975  0.38046043    -0.79400
C145        C  0.24745659  0.53292356  0.33042321     0.80600
N146        N  0.24131424  0.53135306  0.37674340    -0.77700
C147        C  0.23821967  0.49091867  0.39952955     0.83100
N148        N  0.24024106  0.45080120  0.37571991    -0.77600
C149        C  0.24606691  0.44940801  0.32949370     0.83200
N150        N  0.25042027  0.49122448  0.30616058    -0.79400
C151        C  0.08676888  0.50233367  0.05605259     0.80600
N152        N  0.04043395  0.50306227  0.05431936    -0.77700
C153        C  0.01766179  0.54184707  0.04160458     0.83100
N154        N  0.04167459  0.58131472  0.03385260    -0.77600
C155        C  0.08837347  0.58058207  0.03571955     0.83200
N156        N  0.10992484  0.54076780  0.04606956    -0.79400
O157        O  0.15525410  0.73256698  0.12614566    -0.86100
O158        O  0.37500374  0.81351052  0.23842250    -0.86300
O159        O  0.24701310  0.86711651  0.16536383    -0.87900
O160        O  0.33081961  0.73789425  0.13500722    -0.86700
O161        O  0.30115897  0.66915340  0.14669413    -0.86300
O162        O  0.21208588  0.89487108  0.23031266    -0.87700
O163        O  0.33596829  0.82290776  0.16989583    -0.86100
O164        O  0.21973391  0.76732193  0.09782370    -0.85700
Zr165      Zr  0.26576719  0.78190233  0.16948748     2.84300
O166        O  0.31170710  0.73430290  0.21838430    -1.07700
O167        O  0.19297582  0.79001120  0.20303301    -1.08400
C168        C  0.17952308  0.74901800  0.09189281     1.07000
C169        C  0.37103167  0.82895101  0.19623310     1.07000
C170        C  0.22993928  0.90083279  0.19014630     1.09900
C171        C  0.33527543  0.69362837  0.13713739     1.07700
H172        H  0.28904785  0.84321936  0.24081538     0.33300
O173        O  0.27525904  0.81319639  0.24361011    -1.28600
H174        H  0.22880699  0.69704290  0.15082183     0.32900
O175        O  0.23363827  0.70902905  0.18153559    -1.30300
O176        O  0.32870221  0.75262788  0.37831463    -0.86100
O177        O  0.11001669  0.67037971  0.26539734    -0.87600
O178        O  0.25441020  0.87748289  0.31898693    -0.86200
O179        O  0.36927118  0.65805849  0.24399329    -0.86200
O180        O  0.23999805  0.61103232  0.17150059    -0.85900
O181        O  0.11591284  0.82551395  0.26170128    -0.85700
O182        O  0.16468285  0.74602296  0.37839939    -0.86100
O183        O  0.23586616  0.61565202  0.33559572    -0.85600
O184        O  0.19667827  0.81084615  0.35781377    -0.86600
O185        O  0.26917016  0.58745549  0.27005673    -0.85800
O186        O  0.32445842  0.84140068  0.32489315    -0.86200
O187        O  0.08841086  0.76011383  0.22588501    -0.85900
O188        O  0.17936941  0.63547621  0.20695626    -0.85600
O189        O  0.39630124  0.72297102  0.28061415    -0.86000
O190        O  0.26548669  0.71553818  0.40574071    -0.86300
O191        O  0.15137780  0.66170656  0.33270906    -0.87600
Zr192      Zr  0.32491789  0.76720360  0.29089959     2.83100
Zr193      Zr  0.16002204  0.71604942  0.21291982     2.83500
Zr194      Zr  0.20289592  0.82416390  0.27627939     2.84100
Zr195      Zr  0.28357710  0.65908017  0.22648141     2.83400
Zr196      Zr  0.22134828  0.70180239  0.33354405     2.84200
O197        O  0.21130322  0.67142710  0.25939659    -1.08200
O198        O  0.25176605  0.77571302  0.32139427    -1.07700
C199        C  0.30453593  0.73558150  0.41242470     1.07000
C200        C  0.11576626  0.65530770  0.30753012     1.09600
C201        C  0.29718525  0.87515225  0.33160026     1.07200
C202        C  0.40278925  0.68317283  0.26149158     1.07500
C203        C  0.19705692  0.61987529  0.17044450     1.07100
C204        C  0.08197190  0.80005550  0.24500359     1.06600
C205        C  0.16182184  0.78977213  0.37209092     1.07100
C206        C  0.25085165  0.58146006  0.31003627     1.06600
H207        H  0.14322747  0.75062515  0.29763988     0.33300
O208        O  0.17342500  0.74930039  0.28498163    -1.29300
H209        H  0.31386828  0.67370270  0.32013488     0.33300
O210        O  0.29427136  0.69246073  0.30076675    -1.30700
C211        C  0.32213548  0.24478839  0.45786025     0.80600
N212        N  0.36799484  0.23907588  0.45901529    -0.77700
C213        C  0.39210632  0.23648315  0.49907914     0.83100
N214        N  0.36986528  0.23877447  0.53974664    -0.77600
C215        C  0.32386503  0.24460999  0.54130929     0.83200
N216        N  0.29942745  0.24819325  0.49971493    -0.79400
C217        C  0.01505323  0.08316907  0.41496216     0.80600
N218        N  0.03203750  0.10438154  0.45303229    -0.77700
C219        C  0.04893986  0.08065652  0.48917663     0.83100
N220        N  0.04662088  0.03387509  0.48849843    -0.77600
C221        C  0.02664699  0.01141890  0.45196628     0.83200
N222        N  0.01227119  0.03614523  0.41448244    -0.79400
O223        O  0.25191952  0.11447204  0.83386580    -0.86100
O224        O  0.17865537  0.22456815  0.61126519    -0.86300
O225        O  0.11555137  0.15554803  0.73896702    -0.87900
O226        O  0.25079329  0.11051197  0.67244076    -0.86700
O227        O  0.32146353  0.14443791  0.66925429    -0.86300
O228        O  0.08750414  0.22225511  0.77081350    -0.87700
O229        O  0.17058155  0.15495587  0.64807039    -0.86100
O230        O  0.21413658  0.08718764  0.76921549    -0.85700
Zr231      Zr  0.20203397  0.15828385  0.72391419     2.84300
O232        O  0.25069118  0.20601488  0.67952877    -1.07700
O233        O  0.19310034  0.19217549  0.79723166    -1.08400
C234        C  0.23430010  0.08079778  0.80875751     1.07000
C235        C  0.16565028  0.18173347  0.61334688     1.07000
C236        C  0.08136871  0.18129853  0.75361783     1.09900
C237        C  0.29259969  0.11321799  0.65780871     1.07700
H238        H  0.14186358  0.22499685  0.69802720     0.33300
O239        O  0.17108821  0.23124994  0.71274029    -1.28600
H240        H  0.28636204  0.13853762  0.75815030     0.32900
O241        O  0.27450978  0.16948731  0.75667044    -1.30300
O242        O  0.23682525  0.36511277  0.66353696    -0.86100
O243        O  0.31214979  0.25179230  0.88460576    -0.87600
O244        O  0.12284143  0.32831605  0.74095016    -0.86200
O245        O  0.32793858  0.23043273  0.62385853    -0.86200
O246        O  0.36682381  0.15639349  0.75552920    -0.85900
O247        O  0.15720654  0.25055625  0.87274698    -0.85700
O248        O  0.23894052  0.36514251  0.83173023    -0.86100
O249        O  0.36884564  0.32505332  0.75868693    -0.85600
O250        O  0.17662363  0.34588950  0.79429867    -0.86600
O251        O  0.39630203  0.25978163  0.72398953    -0.85800
O252        O  0.13987280  0.29767644  0.67344369    -0.86200
O253        O  0.22051214  0.21265670  0.90153867    -0.85900
O254        O  0.34703274  0.19133211  0.81933473    -0.85600
O255        O  0.26392699  0.26626376  0.59472955    -0.86000
O256        O  0.27112154  0.39305369  0.72973275    -0.86300
O257        O  0.32339663  0.31931309  0.84527270    -0.87600
Zr258      Zr  0.21905295  0.27835443  0.66503884     2.83100
Zr259      Zr  0.26666901  0.20077821  0.83158877     2.83500
Zr260      Zr  0.15964616  0.26547790  0.78610441     2.84100
Zr261      Zr  0.32470558  0.21497904  0.70997349     2.83400
Zr262      Zr  0.28358769  0.32129699  0.77380691     2.84200
O263        O  0.31325412  0.24727753  0.78354463    -1.08200
O264        O  0.21167341  0.30768177  0.73970414    -1.07700
C265        C  0.25317446  0.39927939  0.68914239     1.07000
C266        C  0.32841781  0.29338574  0.88054238     1.09600
C267        C  0.12948719  0.33258559  0.69719847     1.07200
C268        C  0.30337580  0.24702270  0.58943315     1.07500
C269        C  0.36025288  0.15502649  0.79933326     1.07100
C270        C  0.18134597  0.23265724  0.90697990     1.06600
C271        C  0.19534662  0.35939996  0.83140353     1.07100
C272        C  0.40260693  0.30009413  0.74260359     1.06600
H273        H  0.23265615  0.28486478  0.84954999     0.33300
O274        O  0.23421116  0.27268501  0.81867795    -1.29300
H275        H  0.31171025  0.30765967  0.68041287     0.33300
O276        O  0.29250419  0.28861860  0.69937142    -1.30700
C277        C  0.32515066  0.73794556  0.46179354     0.80600
N278        N  0.30142798  0.73344838  0.50331618    -0.77700
C279        C  0.32481302  0.73642379  0.54584306     0.83100
N280        N  0.37066593  0.74237043  0.54523095    -0.77600
C281        C  0.39394683  0.74597765  0.50532861     0.83200
N282        N  0.37101359  0.74417386  0.46435567    -0.79400
C283        C  0.04230136  0.89027197  0.48960472     0.80600
N284        N  0.04076542  0.93710961  0.48947799    -0.77700
C285        C  0.02625081  0.96040350  0.45127997     0.83100
N286        N  0.01703967  0.93645081  0.41157690    -0.77600
C287        C  0.01954702  0.88943521  0.41129928     0.83200
N288        N  0.03036700  0.86745265  0.45092421    -0.79400
C289        C  0.25160041  0.53196537  0.66935113     0.80600
N290        N  0.25482001  0.48994670  0.69284891    -0.77700
C291        C  0.25211624  0.44817560  0.66847008     0.83100
N292        N  0.24758016  0.45002098  0.62193121    -0.77600
C293        C  0.24485017  0.49046666  0.59891724     0.83200
N294        N  0.24640358  0.53070913  0.62273419    -0.79400
C295        C  0.08962353  0.40459443  0.96717499     0.80600
N296        N  0.04354816  0.40704437  0.97089049    -0.77700
C297        C  0.02170097  0.44801417  0.96539193     0.83100
N298        N  0.04618189  0.48624783  0.95342667    -0.77600
C299        C  0.09269722  0.48392954  0.95050706     0.83200
N300        N  0.11325904  0.44325024  0.95798402    -0.79400
O301        O  0.15335528  0.73160968  0.87637271    -0.86100
O302        O  0.37269453  0.81318382  0.77066126    -0.86300
O303        O  0.30563311  0.72658038  0.88862992    -0.87900
O304        O  0.25002428  0.86678181  0.83589816    -0.86700
O305        O  0.21544114  0.89426140  0.76999333    -0.86300
O306        O  0.31402435  0.65610407  0.85278314    -0.87700
O307        O  0.33545116  0.81730849  0.84009389    -0.86100
O308        O  0.21638160  0.76892727  0.90584322    -0.85700
Zr309      Zr  0.26351792  0.77991531  0.83610410     2.84300
O310        O  0.27320806  0.80990324  0.76251360    -1.07700
O311        O  0.23307441  0.70728793  0.82121569    -1.08400
C312        C  0.17716815  0.74897791  0.91111303     1.07000
C313        C  0.36892940  0.82638982  0.81357832     1.07000
C314        C  0.31874468  0.68374802  0.88710984     1.09900
C315        C  0.23457266  0.90066819  0.80987202     1.07700
H316        H  0.34129412  0.73045833  0.80507376     0.33300
O317        O  0.31207431  0.73298876  0.78943572    -1.28600
H318        H  0.17103727  0.81021185  0.82152129     0.32900
O319        O  0.19039465  0.79114361  0.80259120    -1.30300
O320        O  0.32780607  0.75191223  0.62912853    -0.86100
O321        O  0.10930921  0.67308335  0.73826199    -0.87600
O322        O  0.36860360  0.65728154  0.76261003    -0.86200
O323        O  0.24439554  0.86768497  0.67251044    -0.86200
O324        O  0.11574001  0.82696030  0.74303235    -0.85900
O325        O  0.23218299  0.61648351  0.83267315    -0.85700
O326        O  0.23609489  0.61454483  0.66586777    -0.86100
O327        O  0.17050987  0.75070976  0.61871473    -0.85600
O328        O  0.27093530  0.58703487  0.73162412    -0.86600
O329        O  0.16034531  0.81824970  0.65816857    -0.85800
O330        O  0.39619700  0.72268678  0.72856127    -0.86200
O331        O  0.15916763  0.64437830  0.82576667    -0.85900
O332        O  0.08858576  0.76208422  0.77783021    -0.85600
O333        O  0.30540749  0.84667732  0.71086356    -0.86000
O334        O  0.26517426  0.71311073  0.59989210    -0.86300
O335        O  0.14543591  0.66643009  0.66859439    -0.87600
Zr336      Zr  0.32423654  0.76623698  0.71663283     2.83100
Zr337      Zr  0.15987356  0.71724749  0.79003067     2.83500
Zr338      Zr  0.28180176  0.65897601  0.77746924     2.84100
Zr339      Zr  0.20085498  0.82205746  0.72835801     2.83400
Zr340      Zr  0.21911139  0.70064561  0.67014782     2.84200
O341        O  0.17191297  0.74799022  0.71687489    -1.08200
O342        O  0.29243091  0.69208732  0.70452356    -1.07700
C343        C  0.30395802  0.73387807  0.59440475     1.07000
C344        C  0.11178590  0.65980771  0.69565863     1.09600
C345        C  0.40259410  0.68243200  0.74663574     1.07200
C346        C  0.28771829  0.86096139  0.67355798     1.07500
C347        C  0.08211012  0.80194076  0.75897719     1.07100
C348        C  0.18912716  0.61760693  0.84367714     1.06600
C349        C  0.25276227  0.58059950  0.69098395     1.07100
C350        C  0.15410000  0.79227839  0.62311011     1.06600
H351        H  0.19449152  0.63966327  0.74126012     0.33300
O352        O  0.20858771  0.66961747  0.74413521    -1.29300
H353        H  0.25172866  0.78580914  0.65266083     0.33300
O354        O  0.25005954  0.77343655  0.68341357    -1.30700
C355        C  0.73878272  0.44962083  0.32974703     0.80600
N356        N  0.73427743  0.49110911  0.30571237    -0.77700
C357        C  0.73811387  0.53295276  0.32949456     0.83100
N358        N  0.74502886  0.53174310  0.37565435    -0.77600
C359        C  0.74837190  0.49178838  0.39910475     0.83200
N360        N  0.74565842  0.45137711  0.37596402    -0.79400
C361        C  0.89619689  0.57750057  0.02741044     0.80600
N362        N  0.87515689  0.53966364  0.04363561    -0.77700
C363        C  0.89854727  0.50370595  0.06072133     0.83100
N364        N  0.94498599  0.50458056  0.05968909    -0.77600
C365        C  0.96727576  0.54129947  0.04123474     0.83200
N366        N  0.94279771  0.57843634  0.02640220    -0.79400
C367        C  0.53384828  0.66237914  0.26014356     0.80600
N368        N  0.53244384  0.61595702  0.25507092    -0.77700
C369        C  0.49243963  0.59264196  0.25347192     0.83100
N370        N  0.45249613  0.61594918  0.25599607    -0.77600
C371        C  0.45099564  0.66233399  0.26056223     0.83200
N372        N  0.49244169  0.68625600  0.26328980    -0.79400
C373        C  0.57951074  0.97135833  0.10127502     0.80600
N374        N  0.57926758  0.97273050  0.05408578    -0.77700
C375        C  0.54186317  0.95803584  0.02977459     0.83100
N376        N  0.50566681  0.94043329  0.05291922    -0.77600
C377        C  0.50537062  0.93956296  0.09986011     0.83200
N378        N  0.54190326  0.95612507  0.12312134    -0.79400
O379        O  0.73221980  0.86676465  0.16698131    -0.86100
O380        O  0.81067447  0.75196415  0.38795727    -0.86300
O381        O  0.72853962  0.87571274  0.32039789    -0.87900
O382        O  0.86756913  0.82511621  0.26149985    -0.86700
O383        O  0.89507767  0.75939881  0.22734654    -0.86300
O384        O  0.66183758  0.83640582  0.33224320    -0.87700
O385        O  0.81708822  0.82181037  0.35123950    -0.86100
O386        O  0.76966422  0.89491892  0.23128003    -0.85700
Zr387      Zr  0.78135608  0.82334871  0.27680332     2.84300
O388        O  0.81137039  0.74929399  0.28620502    -1.07700
O389        O  0.70964247  0.80950555  0.24405241    -1.08400
C390        C  0.74953656  0.90104156  0.19159209     1.07000
C391        C  0.82427651  0.79447735  0.38529327     1.07000
C392        C  0.68713722  0.87202148  0.33627016     1.09900
C393        C  0.90143841  0.79966783  0.24574922     1.07700
H394        H  0.73189830  0.78977482  0.35384505     0.33300
O395        O  0.73418006  0.77560242  0.32372383    -1.28600
H396        H  0.80845445  0.80919081  0.18359836     0.32900
O397        O  0.78962666  0.78994036  0.20273547    -1.30300
O398        O  0.75093504  0.61537217  0.33518455    -0.86100
O399        O  0.67399068  0.72510329  0.11705390    -0.87600
O400        O  0.65534530  0.74703857  0.37673779    -0.86200
O401        O  0.86669283  0.65804568  0.25742213    -0.86200
O402        O  0.82375357  0.73460486  0.12647439    -0.85900
O403        O  0.62703051  0.83256615  0.24905946    -0.85700
O404        O  0.61546492  0.65786114  0.24555714    -0.86100
O405        O  0.74448992  0.62937064  0.15907298    -0.85600
O406        O  0.58814257  0.72418643  0.27863483    -0.86600
O407        O  0.81255866  0.63753438  0.19150222    -0.85800
O408        O  0.71974387  0.71118637  0.40489880    -0.86200
O409        O  0.63722794  0.80076071  0.18072097    -0.85900
O410        O  0.75935678  0.76986786  0.09757339    -0.85600
O411        O  0.84616394  0.69159518  0.32189065    -0.86000
O412        O  0.71570877  0.58762871  0.26913040    -0.86300
O413        O  0.66124919  0.65763618  0.15625425    -0.87600
Zr414      Zr  0.76579288  0.70214708  0.33475054     2.83100
Zr415      Zr  0.71567738  0.78025040  0.16907585     2.83500
Zr416      Zr  0.66050484  0.76623662  0.29190316     2.84100
Zr417      Zr  0.82329933  0.71639444  0.21277620     2.83400
Zr418      Zr  0.70061523  0.66012404  0.22697556     2.84200
O419        O  0.74868144  0.70899027  0.18317845    -1.08200
O420        O  0.69234169  0.69264411  0.30135988    -1.07700
C421        C  0.73483439  0.58139497  0.30926505     1.07000
C422        C  0.65816961  0.68327157  0.12067011     1.09600
C423        C  0.67978191  0.72930592  0.41052655     1.07200
C424        C  0.85984864  0.65576512  0.30118924     1.07500
C425        C  0.79913111  0.75134778  0.09205253     1.07100
C426        C  0.62906722  0.83608323  0.20476968     1.06600
C427        C  0.58186775  0.68342768  0.26138624     1.07100
C428        C  0.78857054  0.63002768  0.15586727     1.06600
H429        H  0.63930754  0.72769452  0.20422356     0.33300
O430        O  0.66909045  0.73331756  0.21783851    -1.29300
H431        H  0.78441350  0.64100393  0.26400519     0.33300
O432        O  0.77289663  0.67162799  0.26022088    -1.30700
C433        C  0.66151533  0.72891878  0.54153598     0.80600
N434        N  0.68381801  0.72608580  0.49958783    -0.77700
C435        C  0.65901412  0.72978382  0.45840040     0.83100
N436        N  0.61296840  0.73569854  0.46041755    -0.77600
C437        C  0.59112032  0.73762877  0.50140093     0.83200
N438        N  0.61566348  0.73445193  0.54107859    -0.79400
C439        C  0.96172032  0.89399384  0.59007736     0.80600
N440        N  0.95053634  0.87155207  0.55063524    -0.77700
C441        C  0.93941059  0.89406095  0.51179248     0.83100
N442        N  0.94229969  0.94073892  0.51122588    -0.77600
C443        C  0.95719670  0.96424632  0.54930986     0.83200
N444        N  0.96500330  0.94090900  0.58949633    -0.79400
C445        C  0.53455113  0.66121430  0.74458817     0.80600
N446        N  0.49285532  0.68514299  0.74271543    -0.77700
C447        C  0.45131490  0.66152460  0.74807264     0.83100
N448        N  0.45306375  0.61528129  0.75426030    -0.77600
C449        C  0.49310204  0.59181210  0.75500829     0.83200
N450        N  0.53292230  0.61504592  0.75035755    -0.79400
C451        C  0.57802559  0.95624578  0.90644266     0.80600
N452        N  0.53739398  0.94700855  0.88582581    -0.77700
C453        C  0.49953014  0.93975784  0.91028919     0.83100
N454        N  0.50176716  0.94360822  0.95693128    -0.77600
C455        C  0.54141496  0.95575394  0.97876064     0.83200
N456        N  0.58037113  0.96003024  0.95358356    -0.79400
C457        C  0.73455003  0.44870306  0.66747519     0.80600
N458        N  0.73158126  0.49034141  0.69148557    -0.77700
C459        C  0.73557868  0.53189129  0.66798978     0.83100
N460        N  0.74158099  0.53049382  0.62182829    -0.77600
C461        C  0.74362206  0.49038470  0.59808050     0.83200
N462        N  0.74045422  0.45000343  0.62107065    -0.79400
C463        C  0.90138504  0.48573028  0.94975437     0.80600
N464        N  0.94790481  0.48618755  0.95129724    -0.77700
C465        C  0.97139683  0.44902442  0.96736330     0.83100
N466        N  0.94805081  0.41011761  0.97877845    -0.77600
C467        C  0.90149240  0.40965622  0.97730186     0.83200
N468        N  0.87929019  0.44808473  0.96412123    -0.79400
O469        O  0.82570754  0.73597987  0.87746585    -0.86100
O470        O  0.61447638  0.82116026  0.74948107    -0.86300
O471        O  0.73305611  0.86647537  0.83374149    -0.87900
O472        O  0.65178976  0.73523783  0.86561597    -0.86700
O473        O  0.68108059  0.66600158  0.85253725    -0.86300
O474        O  0.76762449  0.89458510  0.76848076    -0.87700
O475        O  0.63704147  0.78574741  0.81162557    -0.86100
O476        O  0.75876657  0.76610668  0.90511339    -0.85700
Zr477      Zr  0.71659712  0.77986115  0.83196867     2.84300
O478        O  0.67463409  0.73149604  0.78025960    -1.07700
O479        O  0.78907892  0.79018411  0.79810867    -1.08400
C480        C  0.79975263  0.75029929  0.91147433     1.07000
C481        C  0.62226776  0.82213618  0.79316148     1.07000
C482        C  0.74955178  0.90044761  0.80882376     1.09900
C483        C  0.64686963  0.69104064  0.86154393     1.07700
H484        H  0.69868239  0.84100861  0.76180058     0.33300
O485        O  0.71080901  0.81059388  0.75718753    -1.28600
H486        H  0.75523619  0.69351612  0.85175332     0.32900
O487        O  0.75102612  0.70724343  0.82177930    -1.30300
O488        O  0.65922290  0.74485948  0.62284061    -0.86100
O489        O  0.85645086  0.64983483  0.74895005    -0.87600
O490        O  0.73830522  0.85916966  0.65798863    -0.86200
O491        O  0.61773838  0.65635740  0.75702592    -0.86200
O492        O  0.75896501  0.60666783  0.81774880    -0.85900
O493        O  0.86873119  0.82570635  0.73927307    -0.85700
O494        O  0.82398337  0.74298618  0.62054673    -0.86100
O495        O  0.75175256  0.61357603  0.66495331    -0.85600
O496        O  0.78851576  0.80493442  0.64271801    -0.86600
O497        O  0.71487644  0.58623182  0.72867915    -0.85800
O498        O  0.67220679  0.84355473  0.68921162    -0.86200
O499        O  0.89589118  0.76164418  0.77724359    -0.85900
O500        O  0.82512653  0.64764535  0.83044065    -0.85600
O501        O  0.58932579  0.72148307  0.72245436    -0.86000
O502        O  0.72413742  0.71093325  0.59500834    -0.86300
O503        O  0.84678466  0.67800183  0.67874457    -0.87600
Zr504      Zr  0.66096494  0.76422694  0.70783628     2.83100
Zr505      Zr  0.82397789  0.71774928  0.79113747     2.83500
Zr506      Zr  0.78239421  0.82326167  0.72339873     2.84100
Zr507      Zr  0.70442920  0.65743526  0.77397940     2.83400
Zr508      Zr  0.76866188  0.69931870  0.66691607     2.84200
O509        O  0.77577219  0.67185735  0.74245630    -1.08200
O510        O  0.73509567  0.77160910  0.67922942    -1.07700
C511        C  0.68378648  0.72828941  0.58914478     1.07000
C512        C  0.85542589  0.64418966  0.70461631     1.09600
C513        C  0.69465803  0.85331985  0.65388072     1.07200
C514        C  0.58335125  0.68162118  0.74130705     1.07500
C515        C  0.80048080  0.61165531  0.83415590     1.07100
C516        C  0.90240438  0.80102881  0.75716611     1.06600
C517        C  0.82468823  0.78658926  0.62819820     1.07100
C518        C  0.73421796  0.57998808  0.68925849     1.06600
H519        H  0.84436988  0.75240865  0.70551373     0.33300
O520        O  0.81396261  0.74893970  0.71726947    -1.29300
H521        H  0.67624507  0.67074388  0.68024050     0.33300
O522        O  0.69521489  0.69037285  0.69962899    -1.30700
C523        C  0.44990321  0.32350131  0.25252548     0.80600
N524        N  0.45093054  0.36990936  0.24745627    -0.77700
C525        C  0.49064896  0.39377182  0.24430945     0.83100
N526        N  0.53113573  0.37097816  0.24557600    -0.77600
C527        C  0.53343597  0.32463187  0.25104120     0.83200
N528        N  0.49204090  0.30035322  0.25513575    -0.79400
C529        C  0.48546855  0.04776808  0.09257185     0.80600
N530        N  0.48371278  0.04572967  0.04580783    -0.77700
C531        C  0.44688806  0.02703595  0.02365609     0.83100
N532        N  0.41024732  0.01308274  0.04879802    -0.77600
C533        C  0.41207607  0.01517022  0.09600343     0.83200
N534        N  0.45018575  0.03168442  0.11679435    -0.79400
O535        O  0.82988545  0.24993499  0.12456235    -0.86100
O536        O  0.60813748  0.17746235  0.23226770    -0.86300
O537        O  0.73349316  0.11692060  0.16300796    -0.87900
O538        O  0.66735484  0.25813317  0.12001402    -0.86700
O539        O  0.67798035  0.33069738  0.14874630    -0.86300
O540        O  0.76635871  0.08837525  0.22958551    -0.87700
O541        O  0.64462927  0.17085205  0.16252980    -0.86100
O542        O  0.76528482  0.21538029  0.09470799    -0.85700
Zr543      Zr  0.71889865  0.20449320  0.16506747     2.84300
O544        O  0.67253308  0.25191369  0.21277435    -1.07700
O545        O  0.79195925  0.19258831  0.19928285    -1.08400
C546        C  0.80537346  0.23363079  0.08958528     1.07000
C547        C  0.61073028  0.16453021  0.18947531     1.07000
C548        C  0.74840675  0.08244354  0.18890509     1.09900
C549        C  0.65944740  0.30246153  0.12053147     1.07700
H550        H  0.69458146  0.14374265  0.23228941     0.33300
O551        O  0.70866347  0.17321350  0.23839823    -1.28600
H552        H  0.75528226  0.29161331  0.14902424     0.32900
O553        O  0.75178214  0.27698823  0.17863616    -1.30300
O554        O  0.65525857  0.23494506  0.37262528    -0.86100
O555        O  0.87095185  0.31668782  0.26406421    -0.87600
O556        O  0.73460569  0.12868141  0.33803964    -0.86200
O557        O  0.61685866  0.32834384  0.23730202    -0.86200
O558        O  0.75734125  0.37683090  0.18413343    -0.85900
O559        O  0.86741407  0.15561105  0.25838595    -0.85700
O560        O  0.80851676  0.22425883  0.38303773    -0.86100
O561        O  0.75216666  0.36692158  0.33408339    -0.85600
O562        O  0.81809508  0.15504925  0.34533508    -0.86600
O563        O  0.71555940  0.39544977  0.26980663    -0.85800
O564        O  0.66737781  0.13985945  0.30448932    -0.86200
O565        O  0.89562030  0.22010692  0.22343701    -0.85900
O566        O  0.82660393  0.34014593  0.17761847    -0.85600
O567        O  0.58844128  0.26444010  0.27321599    -0.86000
O568        O  0.71928233  0.27044284  0.40247955    -0.86300
O569        O  0.83747744  0.31642603  0.33500032    -0.87600
Zr570      Zr  0.65934206  0.21948878  0.28545736     2.83100
Zr571      Zr  0.82483270  0.26578715  0.21142343     2.83500
Zr572      Zr  0.78122585  0.16013846  0.27307077     2.84100
Zr573      Zr  0.70428912  0.32461139  0.22519497     2.83400
Zr574      Zr  0.76561123  0.28000941  0.33224559     2.84200
O575        O  0.77614271  0.31064894  0.25873082    -1.08200
O576        O  0.73286410  0.20922339  0.31646481    -1.07700
C577        C  0.67952931  0.25167777  0.40762211     1.07000
C578        C  0.86847871  0.32920615  0.30726362     1.09600
C579        C  0.69049704  0.13057595  0.34028568     1.07200
C580        C  0.58241836  0.30398063  0.25360920     1.07500
C581        C  0.79979279  0.37457303  0.17154764     1.07100
C582        C  0.90156255  0.18007441  0.24214777     1.06600
C583        C  0.82283798  0.18169115  0.38032105     1.07100
C584        C  0.73563943  0.40120205  0.30928956     1.06600
H585        H  0.84295699  0.23061242  0.29991610     0.33300
O586        O  0.81327409  0.23348925  0.28464193    -1.29300
H587        H  0.67379443  0.31181788  0.31744536     0.33300
O588        O  0.69272342  0.29237600  0.29845224    -1.30700
C589        C  0.45078399  0.32177747  0.74486315     0.80600
N590        N  0.45183306  0.36830541  0.75022850    -0.77700
C591        C  0.49172199  0.39204367  0.75296057     0.83100
N592        N  0.53186194  0.36890926  0.75138029    -0.77600
C593        C  0.53389700  0.32267264  0.74597403     0.83200
N594        N  0.49258575  0.29842830  0.74204678    -0.79400
C595        C  0.40398389  0.02017387  0.90244403     0.80600
N596        N  0.40596742  0.01674935  0.94935533    -0.77700
C597        C  0.44510617  0.02808419  0.97273698     0.83100
N598        N  0.48139443  0.04525852  0.94910523    -0.77600
C599        C  0.47952823  0.04841297  0.90224713     0.83200
N600        N  0.44129143  0.03487043  0.87981709    -0.79400
C601        C  0.65837440  0.24886152  0.54012639     0.80600
N602        N  0.61260458  0.24231536  0.53798629    -0.77700
C603        C  0.58951158  0.23989590  0.49723474     0.83100
N604        N  0.61255317  0.24339015  0.45707483    -0.77600
C605        C  0.65840667  0.24969647  0.45615367     0.83200
N606        N  0.68190875  0.25302587  0.49851765    -0.79400
C607        C  0.93663459  0.08432658  0.51106040     0.80600
N608        N  0.95033673  0.10776313  0.54887936    -0.77700
C609        C  0.96527066  0.08619255  0.58744527     0.83100
N610        N  0.96893408  0.03942653  0.58713460    -0.77600
C611        C  0.95758640  0.01503067  0.54841802     0.83200
N612        N  0.93997665  0.03756577  0.51096056    -0.79400
O613        O  0.82789376  0.24955472  0.87382035    -0.86100
O614        O  0.61270507  0.16749460  0.76244348    -0.86300
O615        O  0.66556201  0.24625506  0.87756614    -0.87900
O616        O  0.73538328  0.11469721  0.83480990    -0.86700
O617        O  0.76932717  0.08607732  0.76987328    -0.86300
O618        O  0.69958463  0.30956968  0.85643721    -0.87700
O619        O  0.64902803  0.16237319  0.83284655    -0.86100
O620        O  0.76438961  0.21391062  0.90254729    -0.85700
Zr621      Zr  0.71973899  0.20071036  0.83123621     2.84300
O622        O  0.70730293  0.17042820  0.75732625    -1.07700
O623        O  0.75206519  0.27283630  0.81672161    -1.08400
C624        C  0.80379974  0.23321035  0.90831820     1.07000
C625        C  0.61643279  0.15249012  0.80480172     1.07000
C626        C  0.66426516  0.29002107  0.87127635     1.09900
C627        C  0.75132862  0.08039699  0.81003514     1.07700
H628        H  0.64243115  0.25142305  0.79639049     0.33300
O629        O  0.67262925  0.24981623  0.78335567    -1.28600
H630        H  0.81170042  0.17191581  0.81658140     0.32900
O631        O  0.79214927  0.19111140  0.79757088    -1.30300
O632        O  0.65448368  0.23538280  0.62356965    -0.86100
O633        O  0.87629857  0.30459894  0.73060289    -0.87600
O634        O  0.61656627  0.32688912  0.76170586    -0.86200
O635        O  0.72471521  0.10533818  0.68244270    -0.86200
O636        O  0.86612746  0.15598724  0.73952539    -0.85900
O637        O  0.75192988  0.36088713  0.83781988    -0.85700
O638        O  0.74733227  0.36625370  0.66348123    -0.86100
O639        O  0.82746213  0.23399353  0.63288132    -0.85600
O640        O  0.71679706  0.39568761  0.73016760    -0.86600
O641        O  0.79504447  0.16653488  0.64433707    -0.85800
O642        O  0.58862193  0.26322847  0.72312517    -0.86200
O643        O  0.81872387  0.34477312  0.80652395    -0.85900
O644        O  0.89567552  0.22064771  0.77484429    -0.85600
O645        O  0.65635483  0.14398701  0.67571697    -0.86000
O646        O  0.71986276  0.26772293  0.59492698    -0.86300
O647        O  0.83741302  0.31562630  0.66194947    -0.87600
Zr648      Zr  0.65912776  0.21797172  0.71058623     2.83100
Zr649      Zr  0.82516880  0.26512123  0.78659433     2.83500
Zr650      Zr  0.70378182  0.32470921  0.77528379     2.84100
Zr651      Zr  0.77884024  0.15718011  0.72432745     2.83400
Zr652      Zr  0.76431977  0.28038282  0.66675428     2.84200
O653        O  0.80818048  0.23155470  0.71572197    -1.08200
O654        O  0.69245883  0.29131890  0.70128236    -1.07700
C655        C  0.67934487  0.25069357  0.58907726     1.07000
C656        C  0.87300901  0.31911875  0.68808832     1.09600
C657        C  0.58251376  0.30235083  0.74383165     1.07200
C658        C  0.68209890  0.10890007  0.66941709     1.07500
C659        C  0.90092100  0.18080682  0.75554923     1.07100
C660        C  0.79577930  0.35534968  0.84159541     1.06600
C661        C  0.73272731  0.40076102  0.68891446     1.07100
C662        C  0.83015147  0.18968696  0.63537172     1.06600
H663        H  0.78965785  0.34225009  0.73407656     0.33300
O664        O  0.77561088  0.31285473  0.73995419    -1.29300
H665        H  0.72389362  0.19359131  0.64862574     0.33300
O666        O  0.73091929  0.20715750  0.67835761    -1.30700
O667        O  0.15646479  0.24696286  0.12101044    -0.86100
O668        O  0.36041413  0.15095570  0.24636545    -0.86300
O669        O  0.32023674  0.24175053  0.11845951    -0.87900
O670        O  0.24806378  0.11343763  0.16489390    -0.86700
O671        O  0.21401231  0.08616088  0.23029986    -0.86300
O672        O  0.28354817  0.30194324  0.14301545    -0.87700
O673        O  0.34420840  0.18009056  0.17801314    -0.86100
O674        O  0.22126631  0.21256055  0.09354835    -0.85700
Zr675      Zr  0.26545197  0.19921855  0.16577428     2.84300
O676        O  0.27261676  0.17183537  0.24127788    -1.07700
O677        O  0.23296560  0.27266974  0.17744579    -1.08400
C678        C  0.18138488  0.23097318  0.08715981     1.07000
C679        C  0.35454456  0.14568468  0.20236305     1.07000
C680        C  0.31993388  0.28510537  0.12696585     1.09900
C681        C  0.23171309  0.07990794  0.19015482     1.07700
H682        H  0.34137793  0.25342967  0.20423619     0.33300
O683        O  0.31129786  0.24883330  0.21623104    -1.28600
H684        H  0.17300207  0.17015337  0.17939767     0.32900
O685        O  0.19219131  0.18958431  0.19873172    -1.30300
O686        O  0.32581384  0.23101661  0.37562739    -0.86100
O687        O  0.11612722  0.32296327  0.25031391    -0.87600
O688        O  0.36690663  0.32694203  0.23805130    -0.86200
O689        O  0.24496604  0.11066603  0.32934810    -0.86200
O690        O  0.11525041  0.15530397  0.25725812    -0.85900
O691        O  0.22875460  0.37404697  0.17763614    -0.85700
O692        O  0.23041652  0.36708524  0.33298615    -0.86100
O693        O  0.14954224  0.23607171  0.36561916    -0.85600
O694        O  0.26749436  0.39430496  0.26906589    -0.86600
O695        O  0.18098966  0.16849200  0.35292574    -0.85800
O696        O  0.39510752  0.26174833  0.27351642    -0.86200
O697        O  0.16159350  0.33400966  0.16682262    -0.85900
O698        O  0.08785401  0.21965426  0.22057773    -0.85600
O699        O  0.30561415  0.13528645  0.29451310    -0.86000
O700        O  0.26031411  0.26491405  0.40340377    -0.86300
O701        O  0.13516339  0.28754207  0.31381787    -0.87600
Zr702      Zr  0.32387933  0.21589821  0.28906033     2.83100
Zr703      Zr  0.15947120  0.26362442  0.20690046     2.83500
Zr704      Zr  0.27996983  0.32283089  0.22357982     2.84100
Zr705      Zr  0.20096506  0.15764274  0.27387053     2.83400
Zr706      Zr  0.21508132  0.28027978  0.33151167     2.84200
O707        O  0.17195477  0.23210818  0.28012805    -1.08200
O708        O  0.28769029  0.28852207  0.29709675    -1.07700
C709        C  0.30066183  0.24693877  0.40952297     1.07000
C710        C  0.12190028  0.32400283  0.29441045     1.09600
C711        C  0.40119182  0.30200201  0.25468082     1.07200
C712        C  0.28796839  0.11924992  0.33059463     1.07500
C713        C  0.08146660  0.18012293  0.24017413     1.07100
C714        C  0.18720483  0.36919054  0.16158042     1.06600
C715        C  0.24785444  0.40081366  0.30844511     1.07100
C716        C  0.14583688  0.19175709  0.36180345     1.06600
H717        H  0.19617676  0.34104453  0.25717486     0.33300
O718        O  0.20848109  0.31047800  0.25600151    -1.29300
H719        H  0.25400877  0.19576158  0.35049709     0.33300
O720        O  0.24986933  0.20822261  0.32001861    -1.30700
C721        C  0.91399393  0.09142735  0.64986277     0.24000
C722        C  0.95300726  0.11037565  0.63001919    -0.24100
C723        C  0.95638586  0.15883077  0.62885572     0.18900
C724        C  0.91664413  0.18570317  0.63150730     0.23900
C725        C  0.87411899  0.16423834  0.63754685    -0.24100
C726        C  0.87392925  0.11698117  0.65010159     0.18800
F727        F  0.83508445  0.09475092  0.66243402    -0.14000
F728        F  0.91146324  0.04555460  0.65859041    -0.16400
F729        F  0.91964168  0.23178725  0.62564216    -0.16400
F730        F  0.99565613  0.17884260  0.61476666    -0.14000
C731        C  0.50357369  0.09590652  0.83415444     0.24000
C732        C  0.51516540  0.07243463  0.87553281    -0.24100
C733        C  0.56054477  0.07334508  0.89112642     0.18900
C734        C  0.59370523  0.09603355  0.86578625     0.23900
C735        C  0.58186223  0.12152901  0.82551653    -0.24100
C736        C  0.53647046  0.12052106  0.80974353     0.18800
F737        F  0.52329932  0.14520264  0.77215306    -0.14000
F738        F  0.45974351  0.09765347  0.81852883    -0.16400
F739        F  0.63754361  0.09369807  0.88176972    -0.16400
F740        F  0.57300843  0.05313244  0.93150042    -0.14000
C741        C  0.87192150  0.08692451  0.45405472     0.24000
C742        C  0.90831090  0.10941490  0.47666643    -0.24100
C743        C  0.91276920  0.15770791  0.47142478     0.18900
C744        C  0.88296778  0.18233660  0.44250031     0.23900
C745        C  0.84783649  0.15939211  0.41870194    -0.24100
C746        C  0.84231064  0.11143832  0.42531508     0.18800
F747        F  0.80882161  0.08760557  0.40270084    -0.14000
F748        F  0.86372368  0.04141135  0.46083072    -0.16400
F749        F  0.89015348  0.22799537  0.43570305    -0.16400
F750        F  0.94612075  0.18140931  0.49407974    -0.14000
C751        C  0.37606264  0.01985297  0.17210674     0.24000
C752        C  0.37056779  0.02225530  0.12342990    -0.24100
C753        C  0.34303438  0.05751844  0.10590166     0.18900
C754        C  0.33869114  0.09787092  0.13149803     0.23900
C755        C  0.35416740  0.10026095  0.17820937    -0.24100
C756        C  0.36810995  0.05914104  0.19951190     0.18800
F757        F  0.37791674  0.05800433  0.24546383    -0.14000
F758        F  0.39917574  0.98403768  0.19119971    -0.16400
F759        F  0.32121706  0.13513628  0.10918634    -0.16400
F760        F  0.33125593  0.05835050  0.06035198    -0.14000
C761        C  0.52736223  0.06969484  0.16495304     0.24000
C762        C  0.51892037  0.07659269  0.11730838    -0.24100
C763        C  0.53654691  0.11583724  0.09585773     0.18900
C764        C  0.56320726  0.14665914  0.12108445     0.23900
C765        C  0.57328288  0.13874726  0.16798279    -0.24100
C766        C  0.55435618  0.10070793  0.19014747     0.18800
F767        F  0.56395737  0.09222770  0.23534669    -0.14000
F768        F  0.50993423  0.03264646  0.18710052    -0.16400
F769        F  0.58016130  0.18411060  0.09938256    -0.16400
F770        F  0.52676721  0.12552741  0.05094122    -0.14000
C771        C  0.82799388  0.37016764  0.96901425     0.24000
C772        C  0.87610857  0.36720117  0.96600834    -0.24100
C773        C  0.89387421  0.34371329  0.92802386     0.18900
C774        C  0.86754364  0.33978841  0.88781693     0.23900
C775        C  0.82121065  0.35469435  0.88661138    -0.24100
C776        C  0.80078419  0.36609123  0.92877316     0.18800
F777        F  0.75567008  0.37664734  0.93052106    -0.14000
F778        F  0.80907905  0.38808348  0.00762832    -0.16400
F779        F  0.88852250  0.32279073  0.84976400    -0.16400
F780        F  0.93930605  0.33440816  0.92583360    -0.14000
C781        C  0.80150495  0.54430201  0.88839617     0.24000
C782        C  0.82456847  0.57527192  0.86026084    -0.24100
C783        C  0.87305059  0.57661156  0.86227488     0.18900
C784        C  0.89749746  0.55008424  0.89353138     0.23900
C785        C  0.87473413  0.51937531  0.92229752    -0.24100
C786        C  0.82625715  0.51634106  0.91899053     0.18800
F787        F  0.80237950  0.48633541  0.94518588    -0.14000
F788        F  0.75515469  0.54200738  0.88742373    -0.16400
F789        F  0.94378598  0.55388385  0.89425645    -0.16400
F790        F  0.89751042  0.60440148  0.83414793    -0.14000
C791        C  0.64001469  0.90355142  0.89487797     0.24000
C792        C  0.61761797  0.94283987  0.87862463    -0.24100
C793        C  0.61226415  0.94768908  0.83025242     0.18900
C794        C  0.61448730  0.90868740  0.80147912     0.23900
C795        C  0.62522346  0.86555774  0.82059606    -0.24100
C796        C  0.64129304  0.86434961  0.86705880     0.18800
F797        F  0.65682297  0.82500570  0.88680787    -0.14000
F798        F  0.65117290  0.89953428  0.94036792    -0.16400
F799        F  0.60276092  0.91258182  0.75612844    -0.16400
F800        F  0.59453616  0.98723890  0.81273398    -0.14000
C801        C  0.45486307  0.51625047  0.77318865     0.24000
C802        C  0.49336547  0.54072880  0.75779779    -0.24100
C803        C  0.53166344  0.51565721  0.74277632     0.18900
C804        C  0.53064068  0.46773759  0.74082739     0.23900
C805        C  0.49201515  0.44313957  0.75551825    -0.24100
C806        C  0.45415176  0.46799788  0.77195543     0.18800
F807        F  0.41636832  0.44578991  0.78701619    -0.14000
F808        F  0.41792208  0.53884189  0.78991351    -0.16400
F809        F  0.56714967  0.44567472  0.72253348    -0.16400
F810        F  0.57014374  0.53726557  0.72860819    -0.14000
C811        C  0.95074166  0.82098234  0.62927884     0.24000
C812        C  0.94663214  0.86942039  0.63146818    -0.24100
C813        C  0.90587330  0.88728878  0.64877185     0.18900
C814        C  0.86613374  0.86087435  0.64565751     0.23900
C815        C  0.86783063  0.81384780  0.63211363    -0.24100
C816        C  0.91117275  0.79349944  0.62713370     0.18800
F817        F  0.91523956  0.74790385  0.61750369    -0.14000
F818        F  0.99139492  0.80195896  0.61770046    -0.16400
F819        F  0.82608054  0.88232433  0.65471901    -0.16400
F820        F  0.90218454  0.93296351  0.65851734    -0.14000
C821        C  0.88894309  0.79477800  0.44292305     0.24000
C822        C  0.85067705  0.81621486  0.42293113    -0.24100
C823        C  0.84256399  0.86320364  0.43199392     0.18900
C824        C  0.87355702  0.88920308  0.45771247     0.23900
C825        C  0.91249088  0.86841483  0.47701643    -0.24100
C826        C  0.91923940  0.82055935  0.47055373     0.18800
F827        F  0.95473527  0.79859481  0.49147126    -0.14000
F828        F  0.89777907  0.74959241  0.43458227    -0.16400
F829        F  0.86379083  0.93421613  0.46587833    -0.16400
F830        F  0.80443761  0.88429941  0.41514431    -0.14000
C831        C  0.62058846  0.96374970  0.17508454     0.24000
C832        C  0.62200182  0.96039427  0.12636055    -0.24100
C833        C  0.64230960  0.92111715  0.10760225     0.18900
C834        C  0.64264372  0.88078006  0.13285407     0.23900
C835        C  0.63034462  0.88076337  0.18009939    -0.24100
C836        C  0.62315239  0.92351561  0.20192503     0.18800
F837        F  0.61566514  0.92610909  0.24802380    -0.14000
F838        F  0.60687457  0.00358823  0.19519689    -0.16400
F839        F  0.65448873  0.84164548  0.11000139    -0.16400
F840        F  0.65031765  0.91805111  0.06159164    -0.14000
C841        C  0.52540268  0.51817354  0.22464460     0.24000
C842        C  0.49204583  0.54191666  0.24996457    -0.24100
C843        C  0.45775086  0.51674213  0.27208252     0.18900
C844        C  0.45624963  0.46885532  0.26845494     0.23900
C845        C  0.48994674  0.44480441  0.24382437    -0.24100
C846        C  0.52444315  0.47000228  0.22171694     0.18800
F847        F  0.55696801  0.44809021  0.19683973    -0.14000
F848        F  0.55863425  0.54154537  0.20231286    -0.16400
F849        F  0.42288475  0.44600880  0.29106492    -0.16400
F850        F  0.42673046  0.53834378  0.29913444    -0.14000
C851        C  0.88622443  0.64475357  0.07231261     0.24000
C852        C  0.86980864  0.61994085  0.03418643    -0.24100
C853        C  0.82186977  0.61536429  0.02923070     0.18900
C854        C  0.79403920  0.61912720  0.06838362     0.23900
C855        C  0.81379053  0.63108840  0.11135824    -0.24100
C856        C  0.86002165  0.64647929  0.11188916     0.18800
F857        F  0.88101591  0.66244392  0.15097245    -0.14000
F858        F  0.93121009  0.65614206  0.07589833    -0.16400
F859        F  0.74939519  0.60707634  0.06492700    -0.16400
F860        F  0.80418215  0.59593054  0.99020108    -0.14000
C861        C  0.82515782  0.46427436  0.08157610     0.24000
C862        C  0.87291767  0.46995510  0.08842319    -0.24100
C863        C  0.89411731  0.44834925  0.12625454     0.18900
C864        C  0.86873284  0.42086517  0.15560445     0.23900
C865        C  0.82173182  0.41304217  0.14731098    -0.24100
C866        C  0.79989284  0.43572853  0.11058768     0.18800
F867        F  0.75481993  0.42850956  0.10131915    -0.14000
F868        F  0.80284583  0.48571012  0.04629151    -0.16400
F869        F  0.89052692  0.40086476  0.19204856    -0.16400
F870        F  0.93920808  0.45476527  0.13599070    -0.14000
C871        C  0.73600234  0.53139647  0.47453125     0.24000
C872        C  0.75079519  0.49233815  0.44995934    -0.24100
C873        C  0.76501525  0.45305283  0.47458227     0.18900
C874        C  0.76346679  0.45250526  0.52273357     0.23900
C875        C  0.74752747  0.49118586  0.54722729    -0.24100
C876        C  0.73426124  0.53077777  0.52245643     0.18800
F877        F  0.71768059  0.56865835  0.54424499    -0.14000
F878        F  0.72116339  0.56986903  0.45237248    -0.16400
F879        F  0.77774407  0.41405245  0.54519494    -0.16400
F880        F  0.78032054  0.41494934  0.45220155    -0.14000
C881        C  0.41184597  0.84947806  0.88450548     0.24000
C882        C  0.40429751  0.85496957  0.83653121    -0.24100
C883        C  0.42472091  0.89219650  0.81409139     0.18900
C884        C  0.45337629  0.92235772  0.83894047     0.23900
C885        C  0.46138338  0.91601393  0.88672414    -0.24100
C886        C  0.43939909  0.87991843  0.90932659     0.18800
F887        F  0.44670762  0.87201360  0.95504350    -0.14000
F888        F  0.39258856  0.81411713  0.90775247    -0.16400
F889        F  0.47349240  0.95768378  0.81629111    -0.16400
F890        F  0.41570556  0.90032563  0.76874033    -0.14000
C891        C  0.12655811  0.59781708  0.89825623     0.24000
C892        C  0.16990410  0.58701868  0.87954195    -0.24100
C893        C  0.19126937  0.54617728  0.89333661     0.18900
C894        C  0.16762435  0.51448311  0.92037534     0.23900
C895        C  0.12115234  0.52212292  0.93223211    -0.24100
C896        C  0.10189026  0.56518081  0.92254884     0.18800
F897        F  0.05850610  0.57553566  0.93493674    -0.14000
F898        F  0.10672069  0.63962349  0.89154080    -0.16400
F899        F  0.18990064  0.47526432  0.93252791    -0.16400
F900        F  0.23394260  0.53561604  0.87885085    -0.14000
C901        C  0.09814533  0.79128911  0.55537962     0.24000
C902        C  0.12582372  0.81539098  0.58701220    -0.24100
C903        C  0.12305278  0.86427906  0.58790065     0.18900
C904        C  0.09295983  0.88793027  0.55928754     0.23900
C905        C  0.06629560  0.86417893  0.52658280    -0.24100
C906        C  0.06886600  0.81529475  0.52526569     0.18800
F907        F  0.04399908  0.79031522  0.49418383    -0.14000
F908        F  0.09928447  0.74471014  0.55331554    -0.16400
F909        F  0.09192235  0.93461012  0.56255992    -0.16400
F910        F  0.15027397  0.89019282  0.61623220    -0.14000
C911        C  0.46942201  0.72939995  0.54363877     0.24000
C912        C  0.44447307  0.74824682  0.50632800    -0.24100
C913        C  0.46840266  0.76641062  0.46869340     0.18900
C914        C  0.51606047  0.76361568  0.46726102     0.23900
C915        C  0.54081179  0.74265909  0.50346973    -0.24100
C916        C  0.51694310  0.72650539  0.54216427     0.18800
F917        F  0.53927270  0.70618393  0.57812725    -0.14000
F918        F  0.44793824  0.71161052  0.58083730    -0.16400
F919        F  0.53790347  0.78183652  0.43054302    -0.16400
F920        F  0.44571970  0.78701826  0.43315616    -0.14000
C921        C  0.36136320  0.02734149  0.83011507     0.24000
C922        C  0.36058589  0.03091156  0.87870792    -0.24100
C923        C  0.34104395  0.07073576  0.89722949     0.18900
C924        C  0.34383974  0.11158791  0.87228223     0.23900
C925        C  0.35654763  0.11091479  0.82514905    -0.24100
C926        C  0.36130012  0.06764558  0.80340869     0.18800
F927        F  0.36901663  0.06441680  0.75739492    -0.14000
F928        F  0.37318108  0.98686042  0.81004505    -0.16400
F929        F  0.33552640  0.15161424  0.89510907    -0.16400
F930        F  0.33143475  0.07301465  0.94296576    -0.14000
C931        C  0.09351683  0.34522198  0.91023969     0.24000
C932        C  0.11178545  0.36206085  0.95190235    -0.24100
C933        C  0.15957300  0.36116392  0.95777557     0.18900
C934        C  0.18748923  0.36103585  0.91876902     0.23900
C935        C  0.16779967  0.35654401  0.87429979    -0.24100
C936        C  0.12064916  0.34510122  0.87110472     0.18800
F937        F  0.09969493  0.33576876  0.83005124    -0.14000
F938        F  0.04761448  0.33969068  0.90475246    -0.16400
F939        F  0.23291145  0.36819064  0.92458085    -0.16400
F940        F  0.17822247  0.37185924  0.99964671    -0.14000
C941        C  0.15052543  0.11317448  0.56433206     0.24000
C942        C  0.14091328  0.15969589  0.57476547    -0.24100
C943        C  0.10086172  0.17966571  0.55731331     0.18900
C944        C  0.07014266  0.15323845  0.53106859     0.23900
C945        C  0.07866818  0.10616832  0.52206992    -0.24100
C946        C  0.11969477  0.08663234  0.53836214     0.18800
F947        F  0.13069081  0.04228776  0.52827330    -0.14000
F948        F  0.18923154  0.09292168  0.58096726    -0.16400
F949        F  0.03155379  0.17371923  0.51504158    -0.16400
F950        F  0.08988019  0.22376769  0.56837308    -0.14000
C951        C  0.05867581  0.18564959  0.36985442     0.24000
C952        C  0.10155291  0.16555600  0.36114339    -0.24100
C953        C  0.10201972  0.11813734  0.34824842     0.18900
C954        C  0.06268845  0.09132185  0.35005484     0.23900
C955        C  0.02429757  0.10873073  0.37223831    -0.24100
C956        C  0.01978765  0.15723561  0.37426152     0.18800
F957        F  0.97982927  0.17606470  0.38819034    -0.14000
F958        F  0.05468703  0.23178587  0.37630918    -0.16400
F959        F  0.06616869  0.04548625  0.34091943    -0.16400
F960        F  0.14082280  0.09651613  0.33480629    -0.14000
C961        C  0.46813819  0.21556772  0.53481269     0.24000
C962        C  0.44261072  0.23444904  0.49794364    -0.24100
C963        C  0.46594107  0.25305081  0.46009232     0.18900
C964        C  0.51350334  0.25365126  0.45947392     0.23900
C965        C  0.53912729  0.23580118  0.49671340    -0.24100
C966        C  0.51594703  0.21617283  0.53418772     0.18800
F967        F  0.53943886  0.19731503  0.57021027    -0.14000
F968        F  0.44695628  0.19624070  0.57138440    -0.16400
F969        F  0.53429668  0.27378247  0.42310265    -0.16400
F970        F  0.44289860  0.27278009  0.42426988    -0.14000
C971        C  0.44135021  0.88107763  0.19811748     0.24000
C972        C  0.40802278  0.85580725  0.17347345    -0.24100
C973        C  0.40755022  0.85872749  0.12453847     0.18900
C974        C  0.43746342  0.88731187  0.10132388     0.23900
C975        C  0.47035165  0.91316885  0.12563448    -0.24100
C976        C  0.47215957  0.90948212  0.17455668     0.18800
F977        F  0.50366395  0.93324644  0.20001258    -0.14000
F978        F  0.44406240  0.87883293  0.24485543    -0.16400
F979        F  0.43449593  0.88840738  0.05449879    -0.16400
F980        F  0.37826818  0.83315027  0.09811872    -0.14000
C981        C  0.07510827  0.79105304  0.37482779     0.24000
C982        C  0.11700234  0.81411388  0.36895417    -0.24100
C983        C  0.11550087  0.86078334  0.35475398     0.18900
C984        C  0.07397463  0.88414109  0.35113627     0.23900
C985        C  0.03487354  0.86436437  0.36996737    -0.24100
C986        C  0.03384791  0.81580660  0.37316137     0.18800
F987        F  0.99486066  0.79444125  0.38624273    -0.14000
F988        F  0.07402861  0.74555631  0.38504620    -0.16400
F989        F  0.07427880  0.92943510  0.33958130    -0.16400
F990        F  0.15411008  0.88463653  0.34515655    -0.14000
C991        C  0.12514408  0.64101007  0.12717711     0.24000
C992        C  0.17058795  0.62409299  0.12646130    -0.24100
C993        C  0.19033060  0.61546108  0.08317016     0.18900
C994        C  0.16299721  0.61704314  0.04292357     0.23900
C995        C  0.11517320  0.62212721  0.04686712    -0.24100
C996        C  0.09932942  0.64411175  0.08651133     0.18800
F997        F  0.05523546  0.65846280  0.08871273    -0.14000
F998        F  0.10504425  0.65431348  0.16702871    -0.16400
F999        F  0.18072261  0.60169386  0.00260089    -0.16400
F1000       F  0.23475599  0.60247967  0.07994890    -0.14000
C1001       C  0.09093426  0.44068860  0.11426722     0.24000
C1002       C  0.11199240  0.46491507  0.07882033    -0.24100
C1003       C  0.15923836  0.45852189  0.07117417     0.18900
C1004       C  0.18511473  0.42945116  0.09981639     0.23900
C1005       C  0.16381427  0.40573201  0.13554122    -0.24100
C1006       C  0.11623329  0.41108776  0.14170717     0.18800
F1007       F  0.09343642  0.38680697  0.17404947    -0.14000
F1008       F  0.04610309  0.44701634  0.12414562    -0.16400
F1009       F  0.23016462  0.42287223  0.09134997    -0.16400
F1010       F  0.18030431  0.48030851  0.03595814    -0.14000
C1011       C  0.26158020  0.45455988  0.52252749     0.24000
C1012       C  0.24141541  0.49042010  0.54792624    -0.24100
C1013       C  0.21876981  0.52613215  0.52405897     0.18900
C1014       C  0.21693270  0.52615816  0.47570520     0.23900
C1015       C  0.23725366  0.49020670  0.45048152    -0.24100
C1016       C  0.25926779  0.45429208  0.47447331     0.18800
F1017       F  0.28079331  0.41986312  0.45145734    -0.14000
F1018       F  0.28547037  0.42056562  0.54404310    -0.16400
F1019       F  0.19505565  0.56116711  0.45365275    -0.16400
F1020       F  0.19798972  0.56077838  0.54743428    -0.14000
C1021       C  0.14285259  0.40598756  0.39544657     0.24000
C1022       C  0.12408980  0.44675760  0.37811838    -0.24100
C1023       C  0.12122903  0.45119207  0.32965082     0.18900
C1024       C  0.12016296  0.41146065  0.30172288     0.23900
C1025       C  0.12558451  0.36766126  0.32177727    -0.24100
C1026       C  0.13933060  0.36590562  0.36898883     0.18800
F1027       F  0.14836748  0.32552359  0.39059229    -0.14000
F1028       F  0.15378400  0.40236529  0.44105692    -0.16400
F1029       F  0.11075492  0.41591487  0.25611060    -0.16400
F1030       F  0.10827650  0.49203286  0.31097386    -0.14000
C1031       C  0.97285228  0.40519649  0.32839890     0.24000
C1032       C  0.96764560  0.41703601  0.37567023    -0.24100
C1033       C  0.92770944  0.40378025  0.39791607     0.18900
C1034       C  0.89530467  0.37701869  0.37500972     0.23900
C1035       C  0.90224079  0.36128775  0.32898559    -0.24100
C1036       C  0.94089705  0.37689269  0.30566035     0.18800
F1037       F  0.94866077  0.36390890  0.26136321    -0.14000
F1038       F  0.00957545  0.41948132  0.30416230    -0.16400
F1039       F  0.85742926  0.36596584  0.39923689    -0.16400
F1040       F  0.92001167  0.41565044  0.44257598    -0.14000
C1041       C  0.87253664  0.52883898  0.33312181     0.24000
C1042       C  0.86887743  0.53235286  0.38164255    -0.24100
C1043       C  0.84568521  0.57047983  0.39926339     0.18900
C1044       C  0.84305351  0.61061828  0.37308827     0.23900
C1045       C  0.85834836  0.61124450  0.32677597    -0.24100
C1046       C  0.86932530  0.56877356  0.30597469     0.18800
F1047       F  0.88009201  0.56632613  0.26057985    -0.14000
F1048       F  0.89056376  0.49009454  0.31423244    -0.16400
F1049       F  0.82687358  0.64909373  0.39408437    -0.16400
F1050       F  0.83514220  0.57253010  0.44476481    -0.14000
C1051       C  0.05227380  0.60142795  0.40656592     0.24000
C1052       C  0.02364120  0.56971090  0.38404297    -0.24100
C1053       C  0.02434515  0.56717149  0.33502717     0.18900
C1054       C  0.05208925  0.59668128  0.30937126     0.23900
C1055       C  0.08052477  0.62848158  0.33209727    -0.24100
C1056       C  0.08018867  0.63029057  0.38116491     0.18800
F1057       F  0.10711853  0.66034801  0.40525834    -0.14000
F1058       F  0.05209840  0.60622817  0.45324513    -0.16400
F1059       F  0.05207965  0.59312074  0.26259732    -0.16400
F1060       F  0.99797036  0.53613247  0.31165043    -0.14000
C1061       C  0.95919585  0.01420779  0.27777744     0.24000
C1062       C  0.99262278  0.03838520  0.25315900    -0.24100
C1063       C  0.02591989  0.01337092  0.22892609     0.18900
C1064       C  0.02535466  0.96532784  0.22868309     0.23900
C1065       C  0.99194964  0.94116186  0.25322107    -0.24100
C1066       C  0.95877872  0.96598952  0.27769621     0.18800
F1067       F  0.92632750  0.94362384  0.30207745    -0.14000
F1068       F  0.92740918  0.03721170  0.30263364    -0.16400
F1069       F  0.05635940  0.94247904  0.20262999    -0.16400
F1070       F  0.05806622  0.03531231  0.20376695    -0.14000
C1071       C  0.06670266  0.63793998  0.62698180     0.24000
C1072       C  0.07482338  0.63298702  0.67460381    -0.24100
C1073       C  0.05470178  0.59654669  0.69829523     0.18900
C1074       C  0.02917628  0.56366367  0.67380347     0.23900
C1075       C  0.02337341  0.56725039  0.62532767    -0.24100
C1076       C  0.04163537  0.60545964  0.60253689     0.18800
F1077       F  0.03406869  0.61274463  0.55676531    -0.14000
F1078       F  0.08445982  0.67391124  0.60360455    -0.16400
F1079       F  0.01078480  0.52810172  0.69749040    -0.16400
F1080       F  0.06179697  0.59140357  0.74445044    -0.14000
C1081       C  0.84391920  0.59489156  0.63402176     0.24000
C1082       C  0.85750390  0.59834937  0.68122428    -0.24100
C1083       C  0.87123644  0.55781136  0.70380167     0.18900
C1084       C  0.87973520  0.51773221  0.67770514     0.23900
C1085       C  0.87536009  0.51862588  0.62884228    -0.24100
C1086       C  0.84935192  0.55412243  0.60942083     0.18800
F1087       F  0.83904344  0.55413497  0.56351712    -0.14000
F1088       F  0.82705967  0.63154323  0.61025363    -0.16400
F1089       F  0.90138766  0.48192783  0.69857441    -0.16400
F1090       F  0.88023079  0.55790325  0.74988450    -0.14000
C1091       C  0.12387734  0.41989617  0.69590002     0.24000
C1092       C  0.13258858  0.37770357  0.67356710    -0.24100
C1093       C  0.14811501  0.37903554  0.62727238     0.18900
C1094       C  0.14889621  0.42027391  0.60318052     0.23900
C1095       C  0.12516451  0.45781094  0.62125783    -0.24100
C1096       C  0.12276159  0.46065274  0.66984577     0.18800
F1097       F  0.10939266  0.50046806  0.69015366    -0.14000
F1098       F  0.11389219  0.42147877  0.74151316    -0.16400
F1099       F  0.16012598  0.41916876  0.55779786    -0.16400
F1100       F  0.16180875  0.34055228  0.60439206    -0.14000
C1101       C  0.97130599  0.40098528  0.66692914     0.24000
C1102       C  0.97502098  0.39843707  0.61821848    -0.24100
C1103       C  0.94795589  0.36628375  0.59398710     0.18900
C1104       C  0.91662141  0.33909363  0.61724246     0.23900
C1105       C  0.91183487  0.34256984  0.66571882    -0.24100
C1106       C  0.94017451  0.37314825  0.69035551     0.18800
F1107       F  0.93597304  0.37806038  0.73675749    -0.14000
F1108       F  0.99695715  0.43117740  0.69212696    -0.16400
F1109       F  0.89024254  0.30976127  0.59170186    -0.16400
F1110       F  0.95197133  0.36041680  0.54764050    -0.14000
C1111       C  0.95349392  0.01524902  0.75850502     0.24000
C1112       C  0.99022375  0.03983422  0.73963409    -0.24100
C1113       C  0.02685567  0.01510380  0.72048554     0.18900
C1114       C  0.02715090  0.96684705  0.72125122     0.23900
C1115       C  0.99086753  0.94245535  0.74128286    -0.24100
C1116       C  0.95397148  0.96732426  0.75958711     0.18800
F1117       F  0.91911891  0.94548367  0.78091814    -0.14000
F1118       F  0.91776014  0.03744666  0.77814455    -0.16400
F1119       F  0.06292452  0.94410700  0.70233213    -0.16400
F1120       F  0.06238956  0.03751425  0.70092805    -0.14000
C1121       C  0.29573188  0.11160173  0.41744812     0.24000
C1122       C  0.31513835  0.12135630  0.37438674    -0.24100
C1123       C  0.36122176  0.13647794  0.37379896     0.18900
C1124       C  0.38778244  0.13715494  0.41404830     0.23900
C1125       C  0.37135674  0.11538258  0.45338297    -0.24100
C1126       C  0.32356441  0.11044587  0.45731220     0.18800
F1127       F  0.30603574  0.09301867  0.49671655    -0.14000
F1128       F  0.25104228  0.09963224  0.42057425    -0.16400
F1129       F  0.43277516  0.14822206  0.41104868    -0.16400
F1130       F  0.38199333  0.14848265  0.33412220    -0.14000
C1131       C  0.36347423  0.92569605  0.34300513     0.24000
C1132       C  0.31944774  0.91251617  0.35695568    -0.24100
C1133       C  0.30468785  0.92400877  0.40117988     0.18900
C1134       C  0.33340433  0.94886899  0.43096504     0.23900
C1135       C  0.37802876  0.96090765  0.41763241    -0.24100
C1136       C  0.39286608  0.94898060  0.37331013     0.18800
F1137       F  0.43475031  0.96192581  0.35838828    -0.14000
F1138       F  0.37849647  0.91411996  0.30032050    -0.16400
F1139       F  0.31714392  0.96227821  0.47253723    -0.16400
F1140       F  0.26356998  0.90910817  0.41633672    -0.14000
C1141       C  0.65467001  0.01916072  0.57868981     0.24000
C1142       C  0.60658053  0.01547965  0.58317139    -0.24100
C1143       C  0.58517338  0.03989033  0.61869645     0.18900
C1144       C  0.61093739  0.06676195  0.64917750     0.23900
C1145       C  0.65865136  0.07156415  0.64394824    -0.24100
C1146       C  0.68038494  0.04708185  0.60878902     0.18800
F1147       F  0.72602372  0.05169064  0.60224193    -0.14000
F1148       F  0.67700353  0.99603181  0.54492127    -0.16400
F1149       F  0.58880577  0.08893487  0.68376108    -0.16400
F1150       F  0.53938518  0.03690888  0.62513616    -0.14000
C1151       C  0.65848806  0.86865759  0.52763380     0.24000
C1152       C  0.61064529  0.86354643  0.53234582    -0.24100
C1153       C  0.59545205  0.83768758  0.56961383     0.18900
C1154       C  0.62303599  0.83453725  0.60891313     0.23900
C1155       C  0.66882510  0.85111357  0.60911461    -0.24100
C1156       C  0.68743073  0.86419840  0.56667178     0.18800
F1157       F  0.73206211  0.87643431  0.56382091    -0.14000
F1158       F  0.67513797  0.88856187  0.48904876    -0.16400
F1159       F  0.60351307  0.81694948  0.64731666    -0.16400
F1160       F  0.55058956  0.82627517  0.57304689    -0.14000
C1161       C  0.44499742  0.32267054  0.13497128     0.24000
C1162       C  0.43956968  0.37099110  0.13396240    -0.24100
C1163       C  0.39660427  0.38879795  0.14525613     0.18900
C1164       C  0.35803564  0.36119432  0.13934447     0.23900
C1165       C  0.36220897  0.31340125  0.13084302    -0.24100
C1166       C  0.40634621  0.29389702  0.13203336     0.18800
F1167       F  0.41224598  0.24764395  0.12855636    -0.14000
F1168       F  0.48716139  0.30409855  0.12944754    -0.16400
F1169       F  0.31659848  0.38219140  0.13934543    -0.16400
F1170       F  0.39049402  0.43500234  0.14976255    -0.14000
C1171       C  0.37763940  0.38992199  0.95250377     0.24000
C1172       C  0.41186535  0.36789633  0.97842032    -0.24100
C1173       C  0.41710142  0.31952925  0.97388247     0.18900
C1174       C  0.38893958  0.29413717  0.94343565     0.23900
C1175       C  0.35447236  0.31648173  0.91807280    -0.24100
C1176       C  0.34928262  0.36468457  0.92317118     0.18800
F1177       F  0.31679939  0.38810885  0.89893540    -0.14000
F1178       F  0.36986874  0.43586648  0.95680710    -0.16400
F1179       F  0.39659807  0.24839516  0.93735495    -0.16400
F1180       F  0.44939009  0.29671541  0.99890843    -0.14000
C1181       C  0.60073869  0.68407137  0.05661218     0.24000
C1182       C  0.63346784  0.66043648  0.08263860    -0.24100
C1183       C  0.63629861  0.61188897  0.07886106     0.18900
C1184       C  0.60564331  0.58741974  0.05120003     0.23900
C1185       C  0.57194144  0.61088426  0.02570221    -0.24100
C1186       C  0.57049510  0.65965495  0.02806694     0.18800
F1187       F  0.53942681  0.68415760  0.00325761    -0.14000
F1188       F  0.59608521  0.73041600  0.06093260    -0.16400
F1189       F  0.60987777  0.54085635  0.04895820    -0.16400
F1190       F  0.66787451  0.58760337  0.10355690    -0.14000
C1191       C  0.52020497  0.66303304  0.87788900     0.24000
C1192       C  0.52205400  0.61438357  0.87440611    -0.24100
C1193       C  0.55879608  0.59537851  0.85072906     0.18900
C1194       C  0.59897479  0.62048705  0.84689497     0.23900
C1195       C  0.60152022  0.66722797  0.86155501    -0.24100
C1196       C  0.56041832  0.68925835  0.87336696     0.18800
F1197       F  0.55965856  0.73491795  0.88366213    -0.14000
F1198       F  0.48247447  0.68354254  0.89520085    -0.16400
F1199       F  0.63579464  0.59779392  0.83002705    -0.16400
F1200       F  0.56000287  0.54953223  0.84121377    -0.14000
C1201       C  0.37765951  0.05671203  0.57940060     0.24000
C1202       C  0.36243468  0.01120461  0.57773149    -0.24100
C1203       C  0.32018296  0.00022927  0.59885825     0.18900
C1204       C  0.29577145  0.03348578  0.62341090     0.23900
C1205       C  0.31175465  0.07881195  0.62550857    -0.24100
C1206       C  0.35147341  0.09045677  0.60053664     0.18800
F1207       F  0.36634198  0.13468551  0.59785357    -0.14000
F1208       F  0.41867685  0.06870271  0.56196650    -0.16400
F1209       F  0.25810499  0.02063668  0.64704232    -0.16400
F1210       F  0.30346819  0.95670560  0.59858279    -0.14000
C1211       C  0.32264087  0.85399750  0.54730600     0.24000
C1212       C  0.37070495  0.85443594  0.55274703    -0.24100
C1213       C  0.38880734  0.84073854  0.59552727     0.18900
C1214       C  0.36227195  0.84571834  0.63482045     0.23900
C1215       C  0.31509208  0.85616502  0.63094736    -0.24100
C1216       C  0.29492621  0.85678386  0.58646142     0.18800
F1217       F  0.24929833  0.86359422  0.58070968    -0.14000
F1218       F  0.30367261  0.86268231  0.50519829    -0.16400
F1219       F  0.38360947  0.84205911  0.67657915    -0.16400
F1220       F  0.43454901  0.83431105  0.60103432    -0.14000
C1221       C  0.23024979  0.03224265  0.97527565     0.24000
C1222       C  0.23924535  0.99139330  0.95060316    -0.24100
C1223       C  0.24468416  0.94987433  0.97513004     0.18900
C1224       C  0.24293485  0.94952250  0.02307159     0.23900
C1225       C  0.23442758  0.99040940  0.04780769    -0.24100
C1226       C  0.22708249  0.03159636  0.02316726     0.18800
F1227       F  0.21584269  0.07142922  0.04503706    -0.14000
F1228       F  0.22332264  0.07295843  0.95332068    -0.16400
F1229       F  0.24985348  0.90880270  0.04496458    -0.16400
F1230       F  0.25163056  0.90911650  0.95306966    -0.14000
C1231       C  0.68583271  0.12601086  0.42816184     0.24000
C1232       C  0.66478119  0.13130415  0.38446373    -0.24100
C1233       C  0.61742060  0.14243113  0.38315264     0.18900
C1234       C  0.59192697  0.14305720  0.42328259     0.23900
C1235       C  0.61091965  0.12457446  0.46369196    -0.24100
C1236       C  0.65898436  0.12487197  0.46807384     0.18800
F1237       F  0.67885072  0.11361272  0.50912014    -0.14000
F1238       F  0.73143566  0.11923122  0.43227521    -0.16400
F1239       F  0.54614299  0.15038150  0.41955346    -0.16400
F1240       F  0.59466992  0.15148111  0.34296199    -0.14000
C1241       C  0.59290086  0.93621132  0.39640692     0.24000
C1242       C  0.61666432  0.97037768  0.42119284    -0.24100
C1243       C  0.66452147  0.97474963  0.41474873     0.18900
C1244       C  0.68788207  0.94450176  0.38539442     0.23900
C1245       C  0.66396944  0.90965898  0.36178122    -0.24100
C1246       C  0.61573655  0.90745192  0.36631946     0.18800
F1247       F  0.58972368  0.87709778  0.34149918    -0.14000
F1248       F  0.54695051  0.93077747  0.40001748    -0.16400
F1249       F  0.73373282  0.94901366  0.38067836    -0.16400
F1250       F  0.68905299  0.00823958  0.43664013    -0.14000
C1251       C  0.74027486  0.94850901  0.02415942     0.24000
C1252       C  0.73004601  0.98904819  0.04887680    -0.24100
C1253       C  0.71849348  0.02908437  0.02390065     0.18900
C1254       C  0.72002162  0.02927207  0.97565146     0.23900
C1255       C  0.73259028  0.98929863  0.95110020    -0.24100
C1256       C  0.74164337  0.94864990  0.97609581     0.18800
F1257       F  0.75380393  0.90899013  0.95445158    -0.14000
F1258       F  0.75056715  0.90859247  0.04626868    -0.16400
F1259       F  0.70964939  0.06895936  0.95321302    -0.16400
F1260       F  0.70617194  0.06847701  0.04596099    -0.14000
C1261       C  0.56787253  0.32284113  0.02803654     0.24000
C1262       C  0.56156660  0.37122689  0.03110091    -0.24100
C1263       C  0.58456747  0.39546020  0.06615803     0.18900
C1264       C  0.61615212  0.37313868  0.09444463     0.23900
C1265       C  0.62555154  0.32514987  0.08906553    -0.24100
C1266       C  0.60000076  0.30034354  0.05616655     0.18800
F1267       F  0.60699590  0.25461775  0.04991702    -0.14000
F1268       F  0.54442695  0.29711606  0.99641226    -0.16400
F1269       F  0.63814075  0.39980798  0.12646315    -0.16400
F1270       F  0.57855372  0.44153407  0.07194658    -0.14000
C1271       C  0.53801626  0.32101943  0.87658918     0.24000
C1272       C  0.54041593  0.36950671  0.87328961    -0.24100
C1273       C  0.58017387  0.38864893  0.85504025     0.18900
C1274       C  0.62038773  0.36288117  0.85480734     0.23900
C1275       C  0.62058618  0.31621961  0.86920574    -0.24100
C1276       C  0.57835481  0.29493327  0.87746370     0.18800
F1277       F  0.57628618  0.24988557  0.88961563    -0.14000
F1278       F  0.49874265  0.30095798  0.89075047    -0.16400
F1279       F  0.65919196  0.38455405  0.84171887    -0.16400
F1280       F  0.58264444  0.43454058  0.84638993    -0.14000
C1281       C  0.96840553  0.23734103  0.95676525     0.24000
C1282       C  0.94492177  0.25042903  0.99703430    -0.24100
C1283       C  0.97039955  0.26636873  0.03547891     0.18900
C1284       C  0.01819638  0.26689630  0.03451706     0.23900
C1285       C  0.04154278  0.25125160  0.99518164    -0.24100
C1286       C  0.01595628  0.23780507  0.95586037     0.18800
F1287       F  0.03667902  0.22296865  0.91681420    -0.14000
F1288       F  0.94567509  0.22236780  0.91829796    -0.16400
F1289       F  0.04153738  0.28273022  0.07223303    -0.16400
F1290       F  0.94921759  0.28154313  0.07409876    -0.14000
C1291       C  0.46175961  0.66462178  0.12215419     0.24000
C1292       C  0.46002749  0.61622375  0.12839116    -0.24100
C1293       C  0.42368439  0.59914952  0.15381631     0.18900
C1294       C  0.38263074  0.62326551  0.15346161     0.23900
C1295       C  0.38026571  0.66941236  0.13726862    -0.24100
C1296       C  0.42133913  0.69087978  0.12481364     0.18800
F1297       F  0.42168347  0.73561416  0.11141119    -0.16400
F1298       F  0.49899703  0.68380643  0.10256887    -0.16400
F1299       F  0.34511689  0.60032530  0.16820492    -0.16400
F1300       F  0.42358717  0.55457329  0.16787808    -0.14000
C1301       C  0.36145646  0.59051139  0.96485933     0.24000
C1302       C  0.40337196  0.60907855  0.97995236    -0.24100
C1303       C  0.41336104  0.65554231  0.96996278     0.18900
C1304       C  0.38371813  0.68178738  0.94271695     0.23900
C1305       C  0.34285831  0.66265566  0.92624512    -0.24100
C1306       C  0.33136262  0.61722667  0.93854797     0.18800
F1307       F  0.29143060  0.59822062  0.92350950    -0.14000
F1308       F  0.34880422  0.54719010  0.97675451    -0.16400
F1309       F  0.39651115  0.72464662  0.92975956    -0.16400
F1310       F  0.45221084  0.67563816  0.98617309    -0.14000
C1311       C  0.96548520  0.75826696  0.04023024     0.24000
C1312       C  0.94001414  0.73817645  0.00385087    -0.24100
C1313       C  0.96339336  0.71693346  0.96726093     0.18900
C1314       C  0.01125766  0.71708239  0.96641904     0.23900
C1315       C  0.03676331  0.73767905  0.00262561    -0.24100
C1316       C  0.01316915  0.75785922  0.03973717     0.18800
F1317       F  0.03610135  0.77934169  0.07479819    -0.14000
F1318       F  0.94436018  0.78031878  0.07549009    -0.16400
F1319       F  0.03250234  0.69681403  0.93024257    -0.16400
F1320       F  0.93996667  0.69568128  0.93235916    -0.14000
loop_ 
_geom_bond_atom_site_label_1 
_geom_bond_atom_site_label_2 
_geom_bond_distance 
_geom_bond_site_symmetry_2 
_ccdc_geom_bond_type 
C1            N2   1.399   1_556  A
C1            N6   1.361       .  A
C1          C312   1.539       .  S
N2            C3   1.397       .  A
C3            N4   1.354       .  A
C3          C168   1.539       .  S
N4            C5   1.355       .  A
C5            N6   1.358   1_554  A
C5         C1315   1.486       .  S
C7            N8   1.368       .  A
C7           N12   1.346       .  A
C7         C1292   1.475       .  S
N8            C9   1.367       .  A
C9           N10   1.363       .  A
C9           C69   1.479       .  S
N10          C11   1.358       .  A
C11          N12   1.340       .  A
C11        C1302   1.472   1_554  S
C13          N14   1.361       .  A
C13          N18   1.401   1_554  A
C13         C546   1.544       .  S
N14          C15   1.359   1_554  A
C15          N16   1.351       .  A
C15        C1282   1.483       .  S
N16          C17   1.347       .  A
C17          N18   1.399       .  A
C17         C624   1.534       .  S
C19          N20   1.365       .  A
C19          N24   1.347       .  A
C19        C1272   1.471       .  S
N20          C21   1.364       .  A
C21          N22   1.363       .  A
C21          C57   1.475       .  S
N22          C23   1.359       .  A
C23          N24   1.339       .  A
C23        C1262   1.483   1_556  S
C25          N26   1.353       .  A
C25          N30   1.401       .  A
C25         C390   1.545       .  S
N26          C27   1.355       .  A
C27          N28   1.353   1_565  A
C27        C1252   1.485       .  S
N28          C29   1.353       .  A
C29          N30   1.403   1_545  A
C29         C548   1.538       .  S
C31          N32   1.352       .  A
C31          N36   1.364       .  A
C31        C1235   1.468       .  S
N32          C33   1.343       .  A
C33          N34   1.357       .  A
C33        C1242   1.482   1_545  S
N34          C35   1.356       .  A
C35          N36   1.361       .  A
C35          C95   1.470       .  S
C37          N38   1.351       .  A
C37          N42   1.398   1_545  A
C37         C234   1.527       .  S
N38          C39   1.351   1_545  A
C39          N40   1.348       .  A
C39        C1222   1.475       .  S
N40          C41   1.347       .  A
C41          N42   1.398       .  A
C41         C315   1.524       .  S
C43          N44   1.345       .  A
C43          N48   1.362       .  A
C43        C1212   1.466       .  S
N44          C45   1.338       .  A
C45          N46   1.363       .  A
C45        C1202   1.484   1_565  S
N46          C47   1.368       .  A
C47          N48   1.364       .  A
C47          C81   1.479       .  S
C49          N50   1.397       .  A
C49          N54   1.355       .  A
C49         C425   1.533       .  S
N50          C51   1.398   1_554  A
C51          N52   1.355       .  A
C51         C480   1.530       .  S
N52          C53   1.352   1_556  A
C53          N54   1.354       .  A
C53        C1312   1.480       .  S
C55          N56   1.356       .  A
C55          N60   1.341       .  A
C55        C1185   1.475   1_556  S
N56          C57   1.360       .  A
C57          N58   1.365       .  A
N58          C59   1.367       .  A
C59          N60   1.346       .  A
C59        C1192   1.472       .  S
C61          N62   1.396       .  A
C61          N66   1.353       .  A
C61         C270   1.527       .  S
N62          C63   1.396   1_556  A
C63          N64   1.356       .  A
C63         C678   1.529       .  S
N64          C65   1.353   1_554  A
C65          N66   1.352       .  A
C65        C1285   1.481       .  S
C67          N68   1.359       .  A
C67          N72   1.341       .  A
C67        C1172   1.478   1_554  S
N68          C69   1.361       .  A
C69          N70   1.363       .  A
N70          C71   1.367       .  A
C71          N72   1.351       .  A
C71        C1162   1.467       .  S
C73          N74   1.396       .  A
C73          N78   1.353       .  A
C73         C482   1.531       .  S
N74          C75   1.397   1_565  A
C75          N76   1.358       .  A
C75         C627   1.534       .  S
N76          C77   1.356   1_545  A
C77          N78   1.353       .  A
C77        C1255   1.486       .  S
C79          N80   1.361       .  A
C79          N84   1.342       .  A
C79        C1142   1.478   1_565  S
N80          C81   1.362       .  A
C81          N82   1.366       .  A
N82          C83   1.365       .  A
C83          N84   1.346       .  A
C83        C1152   1.473       .  S
C85          N86   1.350       .  A
C85          N90   1.394   1_545  A
C85         C681   1.520       .  S
N86          C87   1.350   1_545  A
C87          N88   1.353       .  A
C87        C1225   1.477       .  S
N88          C89   1.353       .  A
C89          N90   1.394       .  A
C89         C170   1.524       .  S
C91          N92   1.339   1_565  A
C91          N96   1.358       .  A
C91        C1135   1.463       .  S
N92          C93   1.345       .  A
C93          N94   1.362       .  A
C93        C1125   1.466       .  S
N94          C95   1.363       .  A
C95          N96   1.365   1_545  A
C97          N98   1.351       .  A
C97         N102   1.404       .  A
C97         C659   1.545       .  S
N98          C99   1.353       .  A
C99         N100   1.356   1_655  A
C99        C1112   1.481       .  S
N100        C101   1.357       .  A
C101        N102   1.404   1_455  A
C101        C236   1.549       .  S
C103        N104   1.360       .  A
C103        N108   1.346       .  A
C103       C1102   1.486   1_455  S
N104        C105   1.362       .  A
C105        N106   1.360       .  A
C105        C141   1.474       .  S
N106        C107   1.363       .  A
C107        N108   1.353       .  A
C107       C1095   1.468       .  S
C109        N110   1.358       .  A
C109        N114   1.401   1_455  A
C109        C347   1.538       .  S
N110        C111   1.354   1_455  A
C111        N112   1.354       .  A
C111       C1115   1.481       .  S
N112        C113   1.353       .  A
C113        N114   1.400       .  A
C113        C516   1.542       .  S
C115        N116   1.341       .  A
C115        N120   1.356       .  A
C115       C1075   1.468   1_655  S
N116        C117   1.348       .  A
C117        N118   1.371       .  A
C117       C1085   1.477       .  S
N118        C119   1.366       .  A
C119        N120   1.355       .  A
C119        C131   1.481       .  S
C121        N122   1.404   1_455  A
C121        N126   1.353       .  A
C121        C204   1.546       .  S
N122        C123   1.405       .  A
C123        N124   1.355       .  A
C123        C393   1.544       .  S
N124        C125   1.354       .  A
C125        N126   1.353   1_655  A
C125       C1065   1.475       .  S
C127        N128   1.338       .  A
C127        N132   1.362       .  A
C127       C1052   1.483   1_655  S
N128        C129   1.346       .  A
C129        N130   1.365       .  A
C129       C1042   1.470       .  S
N130        C131   1.365       .  A
C131        N132   1.369       .  A
C133        N134   1.358       .  A
C133        N138   1.403       .  A
C133        C582   1.545       .  S
N134        C135   1.356       .  A
C135        N136   1.354   1_655  A
C135       C1062   1.480       .  S
N136        C137   1.354       .  A
C137        N138   1.401   1_455  A
C137        C713   1.543       .  S
C139        N140   1.364       .  A
C139        N144   1.350       .  A
C139       C1022   1.470       .  S
N140        C141   1.363       .  A
C141        N142   1.360       .  A
N142        C143   1.359       .  A
C143        N144   1.342       .  A
C143       C1032   1.481   1_455  S
C145        N146   1.356       .  A
C145        N150   1.400       .  A
C145        C206   1.534       .  S
N146        C147   1.353       .  A
C147        N148   1.352       .  A
C147       C1015   1.476       .  S
N148        C149   1.352       .  A
C149        N150   1.399       .  A
C149        C715   1.535       .  S
C151        N152   1.356       .  A
C151        N156   1.340       .  A
C151       C1002   1.467       .  S
N152        C153   1.358       .  A
C153        N154   1.365       .  A
C153        C365   1.474   1_455  S
N154        C155   1.367       .  A
C155        N156   1.350       .  A
C155        C995   1.470       .  S
O157       Zr193   2.562       .  S
O157        C168   1.319       .  A
O158       Zr192   2.519       .  S
O158        C169   1.307       .  A
O159       Zr165   2.537       .  S
O159        C170   1.314       .  A
O160       Zr165   2.508       .  S
O160        C171   1.293       .  A
O161       Zr195   2.393       .  S
O161        C171   1.260       .  A
O162       Zr194   2.468       .  S
O162        C170   1.294       .  A
O163       Zr165   2.373       .  S
O163        C169   1.281       .  A
O164       Zr165   2.492       .  S
O164        C168   1.300       .  A
Zr165       O166   2.384       .  S
Zr165       O167   2.364       .  S
Zr165       O175   2.344       .  S
Zr165       O173   2.339       .  S
O166       Zr192   2.329       .  S
O166       Zr195   2.347       .  S
O167       Zr193   2.374       .  S
O167       Zr194   2.351       .  S
C169        C972   1.496       .  S
C171       C1295   1.492       .  S
H172        O173   0.965       .  S
O173       Zr192   2.394       .  S
O173       Zr194   2.352       .  S
H174        O175   0.962       .  S
O175       Zr193   2.358       .  S
O175       Zr195   2.428       .  S
O176       Zr192   2.569       .  S
O176        C199   1.321       .  A
O177       Zr193   2.508       .  S
O177        C200   1.306       .  A
O178       Zr194   2.475       .  S
O178        C201   1.301       .  A
O179       Zr195   2.551       .  S
O179        C202   1.316       .  A
O180       Zr195   2.454       .  S
O180        C203   1.282       .  A
O181       Zr194   2.574       .  S
O181        C204   1.322       .  A
O182       Zr196   2.475       .  S
O182        C205   1.286       .  A
O183       Zr196   2.537       .  S
O183        C206   1.314       .  A
O184       Zr194   2.403       .  S
O184        C205   1.265       .  A
O185       Zr195   2.476       .  S
O185        C206   1.295       .  A
O186       Zr192   2.364       .  S
O186        C201   1.279       .  A
O187       Zr193   2.487       .  S
O187        C204   1.297       .  A
O188       Zr193   2.412       .  S
O188        C203   1.265       .  A
O189       Zr192   2.473       .  S
O189        C202   1.294       .  A
O190       Zr196   2.472       .  S
O190        C199   1.294       .  A
O191       Zr196   2.354       .  S
O191        C200   1.276       .  A
Zr192       O198   2.339       .  S
Zr192       O210   2.368       .  S
Zr193       O197   2.387       .  S
Zr193       O208   2.323       .  S
Zr194       O198   2.386       .  S
Zr194       O208   2.354       .  S
Zr195       O197   2.358       .  S
Zr195       O210   2.371       .  S
Zr196       O197   2.331       .  S
Zr196       O198   2.352       .  S
Zr196       O210   2.362       .  S
Zr196       O208   2.410       .  S
C199        C277   1.545       .  S
C200       C1055   1.484       .  S
C201       C1132   1.455       .  S
C202        C371   1.535       .  S
C203        C992   1.486       .  S
C205        C982   1.491       .  S
H207        O208   0.962       .  S
H209        O210   0.966       .  S
C211        N212   1.352       .  A
C211        N216   1.393       .  A
C211        C709   1.527       .  S
N212        C213   1.351       .  A
C213        N214   1.355       .  A
C213        C962   1.480       .  S
N214        C215   1.358       .  A
C215        N216   1.396       .  A
C215        C268   1.526       .  S
C217        N218   1.349       .  A
C217        N222   1.367       .  A
C217        C955   1.474       .  S
N218        C219   1.344       .  A
C219        N220   1.360       .  A
C219        C945   1.477       .  S
N220        C221   1.364       .  A
C221        N222   1.365       .  A
C221        C285   1.481   1_545  S
O223       Zr259   2.543       .  S
O223        C234   1.316       .  A
O224       Zr258   2.486       .  S
O224        C235   1.302       .  A
O225       Zr231   2.575       .  S
O225        C236   1.322       .  A
O226       Zr231   2.494       .  S
O226        C237   1.303       .  A
O227       Zr261   2.359       .  S
O227        C237   1.278       .  A
O228       Zr260   2.488       .  S
O228        C236   1.298       .  A
O229       Zr231   2.370       .  S
O229        C235   1.280       .  A
O230       Zr231   2.473       .  S
O230        C234   1.295       .  A
Zr231       O232   2.380       .  S
Zr231       O233   2.353       .  S
Zr231       O241   2.333       .  S
Zr231       O239   2.326       .  S
O232       Zr258   2.332       .  S
O232       Zr261   2.340       .  S
O233       Zr259   2.371       .  S
O233       Zr260   2.364       .  S
C235        C942   1.466       .  S
C237       C1205   1.480       .  S
H238        O239   0.967       .  S
O239       Zr258   2.412       .  S
O239       Zr260   2.368       .  S
H240        O241   0.964       .  S
O241       Zr259   2.361       .  S
O241       Zr261   2.408       .  S
O242       Zr258   2.572       .  S
O242        C265   1.321       .  A
O243       Zr259   2.498       .  S
O243        C266   1.304       .  A
O244       Zr260   2.486       .  S
O244        C267   1.291       .  A
O245       Zr261   2.538       .  S
O245        C268   1.314       .  A
O246       Zr261   2.475       .  S
O246        C269   1.286       .  A
O247       Zr260   2.549       .  S
O247        C270   1.318       .  A
O248       Zr262   2.486       .  S
O248        C271   1.286       .  A
O249       Zr262   2.541       .  S
O249        C272   1.314       .  A
O250       Zr260   2.396       .  S
O250        C271   1.260       .  A
O251       Zr261   2.493       .  S
O251        C272   1.298       .  A
O252       Zr258   2.399       .  S
O252        C267   1.261       .  A
O253       Zr259   2.473       .  S
O253        C270   1.296       .  A
O254       Zr259   2.398       .  S
O254        C269   1.263       .  A
O255       Zr258   2.461       .  S
O255        C268   1.293       .  A
O256       Zr262   2.472       .  S
O256        C265   1.294       .  A
O257       Zr262   2.361       .  S
O257        C266   1.278       .  A
Zr258       O264   2.332       .  S
Zr258       O276   2.373       .  S
Zr259       O263   2.384       .  S
Zr259       O274   2.323       .  S
Zr260       O264   2.386       .  S
Zr260       O274   2.373       .  S
Zr261       O263   2.351       .  S
Zr261       O276   2.356       .  S
Zr262       O263   2.334       .  S
Zr262       O264   2.344       .  S
Zr262       O276   2.368       .  S
Zr262       O274   2.416       .  S
C265        C291   1.543       .  S
C266       C1175   1.477       .  S
C267       C1092   1.484       .  S
C269        C925   1.490       .  S
C271        C935   1.493       .  S
C272        C589   1.544       .  S
H273        O274   0.961       .  S
H275        O276   0.966       .  S
C277        N278   1.403       .  A
C277        N282   1.355       .  A
N278        C279   1.402       .  A
C279        N280   1.353       .  A
C279        C343   1.543       .  S
N280        C281   1.354       .  A
C281        N282   1.355       .  A
C281        C912   1.480       .  S
C283        N284   1.360       .  A
C283        N288   1.340       .  A
C283        C905   1.483       .  S
N284        C285   1.362       .  A
C285        N286   1.364       .  A
N286        C287   1.367       .  A
C287        N288   1.349       .  A
C287        C985   1.473       .  S
C289        N290   1.402       .  A
C289        N294   1.356       .  A
C289        C349   1.542       .  S
N290        C291   1.402       .  A
C291        N292   1.353       .  A
N292        C293   1.355       .  A
C293        N294   1.354       .  A
C293       C1012   1.478       .  S
C295        N296   1.356       .  A
C295        N300   1.348       .  A
C295        C932   1.464       .  S
N296        C297   1.359       .  A
C297        N298   1.369       .  A
C297        C465   1.474   1_455  S
N298        C299   1.366       .  A
C299        N300   1.342       .  A
C299        C895   1.490       .  S
O301       Zr337   2.542       .  S
O301        C312   1.314       .  A
O302       Zr336   2.496       .  S
O302        C313   1.305       .  A
O303       Zr309   2.490       .  S
O303        C314   1.302       .  A
O304       Zr309   2.552       .  S
O304        C315   1.318       .  A
O305       Zr339   2.447       .  S
O305        C315   1.289       .  A
O306       Zr338   2.365       .  S
O306        C314   1.280       .  A
O307       Zr309   2.369       .  S
O307        C313   1.281       .  A
O308       Zr309   2.483       .  S
O308        C312   1.296       .  A
Zr309       O310   2.326       .  S
Zr309       O311   2.324       .  S
Zr309       O319   2.360       .  S
Zr309       O317   2.395       .  S
O310       Zr336   2.375       .  S
O310       Zr339   2.351       .  S
O311       Zr337   2.331       .  S
O311       Zr338   2.374       .  S
C313        C882   1.475       .  S
C314       C1305   1.463       .  S
H316        O317   0.965       .  S
O317       Zr336   2.354       .  S
O317       Zr338   2.346       .  S
H318        O319   0.966       .  S
O319       Zr337   2.348       .  S
O319       Zr339   2.357       .  S
O320       Zr336   2.569       .  S
O320        C343   1.321       .  A
O321       Zr337   2.449       .  S
O321        C344   1.293       .  A
O322       Zr338   2.582       .  S
O322        C345   1.324       .  A
O323       Zr339   2.464       .  S
O323        C346   1.282       .  A
O324       Zr339   2.536       .  S
O324        C347   1.313       .  A
O325       Zr338   2.503       .  S
O325        C348   1.304       .  A
O326       Zr340   2.551       .  S
O326        C349   1.317       .  A
O327       Zr340   2.513       .  S
O327        C350   1.305       .  A
O328       Zr338   2.487       .  S
O328        C349   1.297       .  A
O329       Zr339   2.340       .  S
O329        C350   1.272       .  A
O330       Zr336   2.477       .  S
O330        C345   1.295       .  A
O331       Zr337   2.359       .  S
O331        C348   1.278       .  A
O332       Zr337   2.481       .  S
O332        C347   1.294       .  A
O333       Zr336   2.405       .  S
O333        C346   1.263       .  A
O334       Zr340   2.484       .  S
O334        C343   1.297       .  A
O335       Zr340   2.373       .  S
O335        C344   1.282       .  A
Zr336       O342   2.367       .  S
Zr336       O354   2.371       .  S
Zr337       O341   2.333       .  S
Zr337       O352   2.397       .  S
Zr338       O342   2.349       .  S
Zr338       O352   2.358       .  S
Zr339       O341   2.331       .  S
Zr339       O354   2.407       .  S
Zr340       O341   2.379       .  S
Zr340       O342   2.366       .  S
Zr340       O354   2.327       .  S
Zr340       O352   2.352       .  S
C344       C1072   1.457       .  S
C345        C447   1.549       .  S
C346       C1215   1.486       .  S
C348        C892   1.486       .  S
C350        C902   1.486       .  S
H351        O352   0.965       .  S
H353        O354   0.964       .  S
C355        N356   1.399       .  A
C355        N360   1.351       .  A
C355        C584   1.525       .  S
N356        C357   1.397       .  A
C357        N358   1.349       .  A
C357        C421   1.528       .  S
N358        C359   1.350       .  A
C359        N360   1.350       .  A
C359        C872   1.473       .  S
C361        N362   1.349       .  A
C361        N366   1.364       .  A
C361        C852   1.468       .  S
N362        C363   1.341       .  A
C363        N364   1.360       .  A
C363        C862   1.480       .  S
N364        C365   1.365       .  A
C365        N366   1.362       .  A
C367        N368   1.355       .  A
C367        N372   1.400       .  A
C367        C427   1.532       .  S
N368        C369   1.352       .  A
C369        N370   1.353       .  A
C369        C842   1.475       .  S
N370        C371   1.353       .  A
C371        N372   1.398       .  A
C373        N374   1.367       .  A
C373        N378   1.352       .  A
C373        C832   1.467       .  S
N374        C375   1.360       .  A
C375        N376   1.362       .  A
C375        C455   1.478   1_554  S
N376        C377   1.359       .  A
C377        N378   1.343       .  A
C377        C975   1.490       .  S
O379       Zr415   2.559       .  S
O379        C390   1.318       .  A
O380       Zr414   2.471       .  S
O380        C391   1.300       .  A
O381       Zr387   2.516       .  S
O381        C392   1.306       .  A
O382       Zr387   2.568       .  S
O382        C393   1.321       .  A
O383       Zr417   2.473       .  S
O383        C393   1.295       .  A
O384       Zr416   2.343       .  S
O384        C392   1.275       .  A
O385       Zr387   2.382       .  S
O385        C391   1.284       .  A
O386       Zr387   2.487       .  S
O386        C390   1.297       .  A
Zr387       O388   2.338       .  S
Zr387       O389   2.324       .  S
Zr387       O397   2.365       .  S
Zr387       O395   2.396       .  S
O388       Zr414   2.387       .  S
O388       Zr417   2.357       .  S
O389       Zr415   2.336       .  S
O389       Zr416   2.374       .  S
C391        C822   1.467       .  S
C392       C1245   1.485       .  S
H394        O395   0.966       .  S
O395       Zr414   2.346       .  S
O395       Zr416   2.347       .  S
H396        O397   0.967       .  S
O397       Zr415   2.376       .  S
O397       Zr417   2.369       .  S
O398       Zr414   2.556       .  S
O398        C421   1.319       .  A
O399       Zr415   2.498       .  S
O399        C422   1.305       .  A
O400       Zr416   2.528       .  S
O400        C423   1.311       .  A
O401       Zr417   2.475       .  S
O401        C424   1.288       .  A
O402       Zr417   2.556       .  S
O402        C425   1.316       .  A
O403       Zr416   2.489       .  S
O403        C426   1.289       .  A
O404       Zr418   2.557       .  S
O404        C427   1.318       .  A
O405       Zr418   2.523       .  S
O405        C428   1.294       .  A
O406       Zr416   2.468       .  S
O406        C427   1.294       .  A
O407       Zr417   2.387       .  S
O407        C428   1.258       .  A
O408       Zr414   2.466       .  S
O408        C423   1.294       .  A
O409       Zr415   2.399       .  S
O409        C426   1.261       .  A
O410       Zr415   2.465       .  S
O410        C425   1.294       .  A
O411       Zr414   2.405       .  S
O411        C424   1.266       .  A
O412       Zr418   2.474       .  S
O412        C421   1.296       .  A
O413       Zr418   2.336       .  S
O413        C422   1.276       .  A
Zr414       O420   2.359       .  S
Zr414       O432   2.340       .  S
Zr415       O419   2.319       .  S
Zr415       O430   2.404       .  S
Zr416       O420   2.346       .  S
Zr416       O430   2.360       .  S
Zr417       O419   2.343       .  S
Zr417       O432   2.413       .  S
Zr418       O419   2.380       .  S
Zr418       O420   2.363       .  S
Zr418       O432   2.334       .  S
Zr418       O430   2.331       .  S
C422       C1182   1.464       .  S
C423        C435   1.521       .  S
C424       C1045   1.494       .  S
C426        C835   1.484       .  S
C428        C855   1.494       .  S
H429        O430   0.965       .  S
H431        O432   0.957       .  S
C433        N434   1.389       .  A
C433        N438   1.351       .  A
C433        C511   1.516       .  S
N434        C435   1.392       .  A
C435        N436   1.360       .  A
N436        C437   1.357       .  A
C437        N438   1.350       .  A
C437        C915   1.481       .  S
C439        N440   1.348       .  A
C439        N444   1.365       .  A
C439        C812   1.471       .  S
N440        C441   1.340       .  A
C441        N442   1.358       .  A
C441        C825   1.469       .  S
N442        C443   1.360       .  A
C443        N444   1.366       .  A
C443        C611   1.475   1_565  S
C445        N446   1.404       .  A
C445        N450   1.352       .  A
C445        C514   1.550       .  S
N446        C447   1.406       .  A
C447        N448   1.356       .  A
N448        C449   1.355       .  A
C449        N450   1.355       .  A
C449        C802   1.485       .  S
C451        N452   1.349       .  A
C451        N456   1.369       .  A
C451        C792   1.471       .  S
N452        C453   1.340       .  A
C453        N454   1.355       .  A
C453        C885   1.470       .  S
N454        C455   1.359       .  A
C455        N456   1.367       .  A
C457        N458   1.395       .  A
C457        N462   1.358       .  A
C457        C661   1.528       .  S
N458        C459   1.393       .  A
C459        N460   1.351       .  A
C459        C518   1.524       .  S
N460        C461   1.351       .  A
C461        N462   1.355       .  A
C461        C875   1.479       .  S
C463        N464   1.361       .  A
C463        N468   1.340       .  A
C463        C785   1.478       .  S
N464        C465   1.360       .  A
C465        N466   1.364       .  A
N466        C467   1.362       .  A
C467        N468   1.345       .  A
C467        C772   1.472       .  S
O469       Zr505   2.552       .  S
O469        C480   1.318       .  A
O470       Zr504   2.462       .  S
O470        C481   1.282       .  A
O471       Zr477   2.560       .  S
O471        C482   1.320       .  A
O472       Zr477   2.507       .  S
O472        C483   1.296       .  A
O473       Zr507   2.396       .  S
O473        C483   1.266       .  A
O474       Zr506   2.483       .  S
O474        C482   1.299       .  A
O475       Zr477   2.399       .  S
O475        C481   1.260       .  A
O476       Zr477   2.470       .  S
O476        C480   1.295       .  A
Zr477       O478   2.376       .  S
Zr477       O479   2.368       .  S
Zr477       O487   2.355       .  S
Zr477       O485   2.349       .  S
O478       Zr504   2.335       .  S
O478       Zr507   2.327       .  S
O479       Zr505   2.347       .  S
O479       Zr506   2.376       .  S
C481        C795   1.488       .  S
C483       C1195   1.496       .  S
H484        O485   0.961       .  S
O485       Zr504   2.429       .  S
O485       Zr506   2.354       .  S
H486        O487   0.963       .  S
O487       Zr505   2.343       .  S
O487       Zr507   2.406       .  S
O488       Zr504   2.521       .  S
O488        C511   1.309       .  A
O489       Zr505   2.508       .  S
O489        C512   1.293       .  A
O490       Zr506   2.507       .  S
O490        C513   1.292       .  A
O491       Zr507   2.577       .  S
O491        C514   1.322       .  A
O492       Zr507   2.507       .  S
O492        C515   1.306       .  A
O493       Zr506   2.562       .  S
O493        C516   1.320       .  A
O494       Zr508   2.471       .  S
O494        C517   1.284       .  A
O495       Zr508   2.538       .  S
O495        C518   1.314       .  A
O496       Zr506   2.402       .  S
O496        C517   1.261       .  A
O497       Zr507   2.464       .  S
O497        C518   1.293       .  A
O498       Zr504   2.391       .  S
O498        C513   1.257       .  A
O499       Zr505   2.498       .  S
O499        C516   1.300       .  A
O500       Zr505   2.336       .  S
O500        C515   1.275       .  A
O501       Zr504   2.478       .  S
O501        C514   1.295       .  A
O502       Zr508   2.465       .  S
O502        C511   1.293       .  A
O503       Zr508   2.388       .  S
O503        C512   1.261       .  A
Zr504       O510   2.343       .  S
Zr504       O522   2.379       .  S
Zr505       O509   2.382       .  S
Zr505       O520   2.341       .  S
Zr506       O510   2.393       .  S
Zr506       O520   2.354       .  S
Zr507       O509   2.328       .  S
Zr507       O522   2.371       .  S
Zr508       O509   2.338       .  S
Zr508       O510   2.345       .  S
Zr508       O522   2.375       .  S
Zr508       O520   2.425       .  S
C512       C1082   1.492       .  S
C513       C1155   1.492       .  S
C515        C782   1.475       .  S
C517        C815   1.492       .  S
H519        O520   0.962       .  S
H521        O522   0.967       .  S
C523        N524   1.356       .  A
C523        N528   1.405       .  A
C523        C711   1.558       .  S
N524        C525   1.357       .  A
C525        N526   1.357       .  A
C525        C845   1.482       .  S
N526        C527   1.357       .  A
C527        N528   1.408       .  A
C527        C580   1.554       .  S
C529        N530   1.355       .  A
C529        N534   1.341       .  A
C529        C762   1.464       .  S
N530        C531   1.358       .  A
C531        N532   1.367       .  A
C531        C597   1.475   1_554  S
N532        C533   1.368       .  A
C533        N534   1.347       .  A
C533        C752   1.474       .  S
O535       Zr571   2.560       .  S
O535        C546   1.318       .  A
O536       Zr570   2.453       .  S
O536        C547   1.296       .  A
O537       Zr543   2.578       .  S
O537        C548   1.324       .  A
O538       Zr543   2.523       .  S
O538        C549   1.307       .  A
O539       Zr573   2.340       .  S
O539        C549   1.270       .  A
O540       Zr572   2.464       .  S
O540        C548   1.293       .  A
O541       Zr543   2.382       .  S
O541        C547   1.284       .  A
O542       Zr543   2.485       .  S
O542        C546   1.298       .  A
Zr543       O544   2.383       .  S
Zr543       O545   2.369       .  S
Zr543       O553   2.343       .  S
Zr543       O551   2.336       .  S
O544       Zr570   2.346       .  S
O544       Zr573   2.330       .  S
O545       Zr571   2.355       .  S
O545       Zr572   2.364       .  S
C547        C765   1.457       .  S
C549       C1265   1.492       .  S
H550        O551   0.964       .  S
O551       Zr570   2.404       .  S
O551       Zr572   2.367       .  S
H552        O553   0.965       .  S
O553       Zr571   2.350       .  S
O553       Zr573   2.386       .  S
O554       Zr570   2.565       .  S
O554        C577   1.320       .  A
O555       Zr571   2.499       .  S
O555        C578   1.304       .  A
O556       Zr572   2.514       .  S
O556        C579   1.294       .  A
O557       Zr573   2.589       .  S
O557        C580   1.325       .  A
O558       Zr573   2.488       .  S
O558        C581   1.301       .  A
O559       Zr572   2.566       .  S
O559        C582   1.319       .  A
O560       Zr574   2.516       .  S
O560        C583   1.307       .  A
O561       Zr574   2.554       .  S
O561        C584   1.318       .  A
O562       Zr572   2.345       .  S
O562        C583   1.277       .  A
O563       Zr573   2.443       .  S
O563        C584   1.288       .  A
O564       Zr570   2.390       .  S
O564        C579   1.260       .  A
O565       Zr571   2.481       .  S
O565        C582   1.295       .  A
O566       Zr571   2.375       .  S
O566        C581   1.282       .  A
O567       Zr570   2.473       .  S
O567        C580   1.294       .  A
O568       Zr574   2.476       .  S
O568        C577   1.295       .  A
O569       Zr574   2.353       .  S
O569        C578   1.276       .  A
Zr570       O576   2.339       .  S
Zr570       O588   2.356       .  S
Zr571       O575   2.375       .  S
Zr571       O586   2.351       .  S
Zr572       O576   2.376       .  S
Zr572       O586   2.347       .  S
Zr573       O575   2.339       .  S
Zr573       O588   2.351       .  S
Zr574       O575   2.335       .  S
Zr574       O576   2.308       .  S
Zr574       O588   2.362       .  S
Zr574       O586   2.388       .  S
C577        C605   1.544       .  S
C578       C1035   1.488       .  S
C579       C1232   1.493       .  S
C581        C865   1.474       .  S
C583        C745   1.474       .  S
H585        O586   0.973       .  S
H587        O588   0.966       .  S
C589        N590   1.359       .  A
C589        N594   1.402       .  A
N590        C591   1.356       .  A
C591        N592   1.354       .  A
C591        C805   1.485       .  S
N592        C593   1.352       .  A
C593        N594   1.401       .  A
C593        C657   1.542       .  S
C595        N596   1.363       .  A
C595        N600   1.351       .  A
C595        C922   1.469       .  S
N596        C597   1.361       .  A
C597        N598   1.367       .  A
N598        C599   1.360       .  A
C599        N600   1.343       .  A
C599        C732   1.483       .  S
C601        N602   1.353       .  A
C601        N606   1.402       .  A
C601        C655   1.537       .  S
N602        C603   1.353       .  A
C603        N604   1.356       .  A
C603        C965   1.479       .  S
N604        C605   1.355       .  A
C605        N606   1.400       .  A
C607        N608   1.343       .  A
C607        N612   1.361       .  A
C607        C742   1.481       .  S
N608        C609   1.350       .  A
C609        N610   1.362       .  A
C609        C722   1.464       .  S
N610        C611   1.360       .  A
C611        N612   1.364       .  A
O613       Zr649   2.568       .  S
O613        C624   1.321       .  A
O614       Zr648   2.515       .  S
O614        C625   1.306       .  A
O615       Zr621   2.470       .  S
O615        C626   1.285       .  A
O616       Zr621   2.541       .  S
O616        C627   1.314       .  A
O617       Zr651   2.472       .  S
O617        C627   1.294       .  A
O618       Zr650   2.397       .  S
O618        C626   1.261       .  A
O619       Zr621   2.350       .  S
O619        C625   1.275       .  A
O620       Zr621   2.456       .  S
O620        C624   1.290       .  A
Zr621       O622   2.333       .  S
Zr621       O623   2.340       .  S
Zr621       O631   2.360       .  S
Zr621       O629   2.412       .  S
O622       Zr648   2.385       .  S
O622       Zr651   2.344       .  S
O623       Zr649   2.332       .  S
O623       Zr650   2.382       .  S
C625        C735   1.487       .  S
C626       C1275   1.488       .  S
H628        O629   0.967       .  S
O629       Zr648   2.325       .  S
O629       Zr650   2.371       .  S
H630        O631   0.967       .  S
O631       Zr649   2.380       .  S
O631       Zr651   2.361       .  S
O632       Zr648   2.573       .  S
O632        C655   1.322       .  A
O633       Zr649   2.503       .  S
O633        C656   1.305       .  A
O634       Zr650   2.577       .  S
O634        C657   1.323       .  A
O635       Zr651   2.484       .  S
O635        C658   1.302       .  A
O636       Zr651   2.585       .  S
O636        C659   1.324       .  A
O637       Zr650   2.505       .  S
O637        C660   1.296       .  A
O638       Zr652   2.544       .  S
O638        C661   1.315       .  A
O639       Zr652   2.495       .  S
O639        C662   1.291       .  A
O640       Zr650   2.477       .  S
O640        C661   1.297       .  A
O641       Zr651   2.387       .  S
O641        C662   1.258       .  A
O642       Zr648   2.476       .  S
O642        C657   1.295       .  A
O643       Zr649   2.388       .  S
O643        C660   1.262       .  A
O644       Zr649   2.460       .  S
O644        C659   1.292       .  A
O645       Zr648   2.369       .  S
O645        C658   1.281       .  A
O646       Zr652   2.463       .  S
O646        C655   1.293       .  A
O647       Zr652   2.377       .  S
O647        C656   1.282       .  A
Zr648       O654   2.360       .  S
Zr648       O666   2.331       .  S
Zr649       O653   2.315       .  S
Zr649       O664   2.410       .  S
Zr650       O654   2.366       .  S
Zr650       O664   2.374       .  S
Zr651       O653   2.339       .  S
Zr651       O666   2.410       .  S
Zr652       O653   2.374       .  S
Zr652       O654   2.361       .  S
Zr652       O666   2.367       .  S
Zr652       O664   2.334       .  S
C656       C1105   1.483       .  S
C658       C1145   1.472       .  S
C660        C775   1.492       .  S
C662        C725   1.484       .  S
H663        O664   0.964       .  S
H665        O666   0.964       .  S
O667       Zr703   2.531       .  S
O667        C678   1.313       .  A
O668       Zr702   2.498       .  S
O668        C679   1.291       .  A
O669       Zr675   2.459       .  S
O669        C680   1.281       .  A
O670       Zr675   2.541       .  S
O670        C681   1.314       .  A
O671       Zr705   2.456       .  S
O671        C681   1.291       .  A
O672       Zr704   2.411       .  S
O672        C680   1.265       .  A
O673       Zr675   2.392       .  S
O673        C679   1.260       .  A
O674       Zr675   2.475       .  S
O674        C678   1.295       .  A
Zr675       O676   2.336       .  S
Zr675       O677   2.359       .  S
Zr675       O685   2.375       .  S
Zr675       O683   2.435       .  S
O676       Zr702   2.392       .  S
O676       Zr705   2.348       .  S
O677       Zr703   2.339       .  S
O677       Zr704   2.392       .  S
C679        C755   1.489       .  S
C680       C1165   1.487       .  S
H682        O683   0.960       .  S
O683       Zr702   2.344       .  S
O683       Zr704   2.345       .  S
H684        O685   0.967       .  S
O685       Zr703   2.365       .  S
O685       Zr705   2.379       .  S
O686       Zr702   2.542       .  S
O686        C709   1.317       .  A
O687       Zr703   2.486       .  S
O687        C710   1.286       .  A
O688       Zr704   2.575       .  S
O688        C711   1.324       .  A
O689       Zr705   2.462       .  S
O689        C712   1.282       .  A
O690       Zr705   2.548       .  S
O690        C713   1.315       .  A
O691       Zr704   2.488       .  S
O691        C714   1.303       .  A
O692       Zr706   2.559       .  S
O692        C715   1.319       .  A
O693       Zr706   2.523       .  S
O693        C716   1.295       .  A
O694       Zr704   2.482       .  S
O694        C715   1.297       .  A
O695       Zr705   2.389       .  S
O695        C716   1.259       .  A
O696       Zr702   2.519       .  S
O696        C711   1.305       .  A
O697       Zr703   2.356       .  S
O697        C714   1.277       .  A
O698       Zr703   2.491       .  S
O698        C713   1.297       .  A
O699       Zr702   2.407       .  S
O699        C712   1.263       .  A
O700       Zr706   2.493       .  S
O700        C709   1.301       .  A
O701       Zr706   2.396       .  S
O701        C710   1.259       .  A
Zr702       O708   2.371       .  S
Zr702       O720   2.366       .  S
Zr703       O707   2.337       .  S
Zr703       O718   2.418       .  S
Zr704       O708   2.362       .  S
Zr704       O718   2.333       .  S
Zr705       O707   2.330       .  S
Zr705       O720   2.432       .  S
Zr706       O707   2.385       .  S
Zr706       O708   2.372       .  S
Zr706       O720   2.351       .  S
Zr706       O718   2.365       .  S
C710       C1025   1.494       .  S
C712       C1122   1.488       .  S
C714       C1005   1.468       .  S
C716        C952   1.502       .  S
H717        O718   0.958       .  S
H719        O720   0.961       .  S
C721        C722   1.399       .  A
C721        C726   1.387       .  A
C721        F728   1.359       .  S
C722        C723   1.411       .  A
C723        C724   1.403       .  A
C723        F730   1.356       .  S
C724        C725   1.405       .  A
C724        F729   1.352       .  S
C725        C726   1.421       .  A
C726        F727   1.360       .  S
C731        C732   1.418       .  A
C731        C736   1.400       .  A
C731        F738   1.355       .  S
C732        C733   1.396       .  A
C733        C734   1.392       .  A
C733        F740   1.356       .  S
C734        C735   1.423       .  A
C734        F739   1.359       .  S
C735        C736   1.398       .  A
C736        F737   1.357       .  S
C741        C742   1.401       .  A
C741        C746   1.391       .  A
C741        F748   1.358       .  S
C742        C743   1.417       .  A
C743        C744   1.399       .  A
C743        F750   1.354       .  S
C744        C745   1.396       .  A
C744        F749   1.358       .  S
C745        C746   1.416       .  A
C746        F747   1.358       .  S
C751        C752   1.418       .  A
C751        C756   1.407       .  A
C751        F758   1.356   1_545  S
C752        C753   1.396       .  A
C753        C754   1.390       .  A
C753        F760   1.359       .  S
C754        C755   1.421       .  A
C754        F759   1.359       .  S
C755        C756   1.404       .  A
C756        F757   1.357       .  S
C761        C762   1.413       .  A
C761        C766   1.394       .  A
C761        F768   1.358       .  S
C762        C763   1.402       .  A
C763        C764   1.385       .  A
C763        F770   1.358       .  S
C764        C765   1.405       .  A
C764        F769   1.356       .  S
C765        C766   1.398       .  A
C766        F767   1.358       .  S
C771        C772   1.414       .  A
C771        C776   1.406       .  A
C771        F778   1.356   1_556  S
C772        C773   1.398       .  A
C773        C774   1.391       .  A
C773        F780   1.359       .  S
C774        C775   1.423       .  A
C774        F779   1.359       .  S
C775        C776   1.405       .  A
C776        F777   1.357       .  S
C781        C782   1.396       .  A
C781        C786   1.399       .  A
C781        F788   1.358       .  S
C782        C783   1.419       .  A
C783        C784   1.383       .  A
C783        F790   1.360       .  S
C784        C785   1.398       .  A
C784        F789   1.359       .  S
C785        C786   1.423       .  A
C786        F787   1.358       .  S
C791        C792   1.396       .  A
C791        C796   1.392       .  A
C791        F798   1.358       .  S
C792        C793   1.415       .  A
C793        C794   1.404       .  A
C793        F800   1.357       .  S
C794        C795   1.405       .  A
C794        F799   1.358       .  S
C795        C796   1.419       .  A
C796        F797   1.355       .  S
C801        C802   1.410       .  A
C801        C806   1.401       .  A
C801        F808   1.358       .  S
C802        C803   1.409       .  A
C803        C804   1.392       .  A
C803        F810   1.358       .  S
C804        C805   1.409       .  A
C804        F809   1.358       .  S
C805        C806   1.409       .  A
C806        F807   1.358       .  S
C811        C812   1.412       .  A
C811        C816   1.406       .  A
C811        F818   1.357       .  S
C812        C813   1.399       .  A
C813        C814   1.394       .  A
C813        F820   1.359       .  S
C814        C815   1.419       .  A
C814        F819   1.355       .  S
C815        C816   1.408       .  A
C816        F817   1.357       .  S
C821        C822   1.400       .  A
C821        C826   1.400       .  A
C821        F828   1.358       .  S
C822        C823   1.409       .  A
C823        C824   1.386       .  A
C823        F830   1.358       .  S
C824        C825   1.400       .  A
C824        F829   1.358       .  S
C825        C826   1.415       .  A
C826        F827   1.356       .  S
C831        C832   1.415       .  A
C831        C836   1.407       .  A
C831        F838   1.356   1_565  S
C832        C833   1.397       .  A
C833        C834   1.383       .  A
C833        F840   1.358       .  S
C834        C835   1.419       .  A
C834        F839   1.359       .  S
C835        C836   1.407       .  A
C836        F837   1.357       .  S
C841        C842   1.407       .  A
C841        C846   1.401       .  A
C841        F848   1.358       .  S
C842        C843   1.405       .  A
C843        C844   1.394       .  A
C843        F850   1.359       .  S
C844        C845   1.408       .  A
C844        F849   1.358       .  S
C845        C846   1.409       .  A
C846        F847   1.358       .  S
C851        C852   1.395       .  A
C851        C856   1.388       .  A
C851        F858   1.359       .  S
C852        C853   1.414       .  A
C853        C854   1.409       .  A
C853        F860   1.356   1_554  S
C854        C855   1.406       .  A
C854        F859   1.354       .  S
C855        C856   1.424       .  A
C856        F857   1.359       .  S
C861        C862   1.418       .  A
C861        C866   1.401       .  A
C861        F868   1.358       .  S
C862        C863   1.402       .  A
C863        C864   1.391       .  A
C863        F870   1.358       .  S
C864        C865   1.411       .  A
C864        F869   1.358       .  S
C865        C866   1.400       .  A
C866        F867   1.358       .  S
C871        C872   1.407       .  A
C871        C876   1.389       .  A
C871        F878   1.359       .  S
C872        C873   1.408       .  A
C873        C874   1.396       .  A
C873        F880   1.358       .  S
C874        C875   1.408       .  A
C874        F879   1.357       .  S
C875        C876   1.409       .  A
C876        F877   1.358       .  S
C881        C882   1.413       .  A
C881        C886   1.387       .  A
C881        F888   1.357       .  S
C882        C883   1.402       .  A
C883        C884   1.401       .  A
C883        F890   1.357       .  S
C884        C885   1.413       .  A
C884        F889   1.358       .  S
C885        C886   1.399       .  A
C886        F887   1.358       .  S
C891        C892   1.421       .  A
C891        C896   1.391       .  A
C891        F898   1.359       .  S
C892        C893   1.398       .  A
C893        C894   1.400       .  A
C893        F900   1.357       .  S
C894        C895   1.424       .  A
C894        F899   1.357       .  S
C895        C896   1.399       .  A
C896        F897   1.357       .  S
C901        C902   1.399       .  A
C901        C906   1.402       .  A
C901        F908   1.354       .  S
C902        C903   1.422       .  A
C903        C904   1.385       .  A
C903        F910   1.359       .  S
C904        C905   1.397       .  A
C904        F909   1.358       .  S
C905        C906   1.421       .  A
C906        F907   1.356       .  S
C911        C912   1.408       .  A
C911        C916   1.394       .  A
C911        F918   1.359       .  S
C912        C913   1.408       .  A
C913        C914   1.398       .  A
C913        F920   1.358       .  S
C914        C915   1.406       .  A
C914        F919   1.357       .  S
C915        C916   1.410       .  A
C916        F917   1.359       .  S
C921        C922   1.411       .  A
C921        C926   1.405       .  A
C921        F928   1.355   1_545  S
C922        C923   1.398       .  A
C923        C924   1.394       .  A
C923        F930   1.359       .  S
C924        C925   1.419       .  A
C924        F929   1.358       .  S
C925        C926   1.410       .  A
C926        F927   1.357       .  S
C931        C932   1.398       .  A
C931        C936   1.393       .  A
C931        F938   1.359       .  S
C932        C933   1.406       .  A
C933        C934   1.403       .  A
C933        F940   1.357       .  S
C934        C935   1.408       .  A
C934        F939   1.353       .  S
C935        C936   1.420       .  A
C936        F937   1.356       .  S
C941        C942   1.412       .  A
C941        C946   1.395       .  A
C941        F948   1.359       .  S
C942        C943   1.397       .  A
C943        C944   1.396       .  A
C943        F950   1.358       .  S
C944        C945   1.413       .  A
C944        F949   1.353       .  S
C945        C946   1.404       .  A
C946        F947   1.358       .  S
C951        C952   1.409       .  A
C951        C956   1.413       .  A
C951        F958   1.357       .  S
C952        C953   1.425       .  A
C953        C954   1.391       .  A
C953        F960   1.358       .  S
C954        C955   1.395       .  A
C954        F959   1.359       .  S
C955        C956   1.415       .  A
C956        F957   1.356   1_455  S
C961        C962   1.407       .  A
C961        C966   1.399       .  A
C961        F968   1.358       .  S
C962        C963   1.409       .  A
C963        C964   1.392       .  A
C963        F970   1.358       .  S
C964        C965   1.406       .  A
C964        F969   1.358       .  S
C965        C966   1.410       .  A
C966        F967   1.358       .  S
C971        C972   1.405       .  A
C971        C976   1.407       .  A
C971        F978   1.356       .  S
C972        C973   1.419       .  A
C973        C974   1.388       .  A
C973        F980   1.359       .  S
C974        C975   1.400       .  A
C974        F979   1.358       .  S
C975        C976   1.421       .  A
C976        F977   1.358       .  S
C981        C982   1.409       .  A
C981        C986   1.405       .  A
C981        F988   1.355       .  S
C982        C983   1.418       .  A
C983        C984   1.394       .  A
C983        F990   1.358       .  S
C984        C985   1.399       .  A
C984        F989   1.358       .  S
C985        C986   1.413       .  A
C986        F987   1.358   1_455  S
C991        C992   1.418       .  A
C991        C996   1.393       .  A
C991        F998   1.357       .  S
C992        C993   1.409       .  A
C993        C994   1.405       .  A
C993       F1000   1.358       .  S
C994        C995   1.413       .  A
C994        F999   1.357       .  S
C995        C996   1.395       .  A
C996        F997   1.358       .  S
C1001      C1002   1.397       .  A
C1001      C1006   1.381       .  A
C1001      F1008   1.359       .  S
C1002      C1003   1.415       .  A
C1003      C1004   1.401       .  A
C1003      F1010   1.358       .  S
C1004      C1005   1.399       .  A
C1004      F1009   1.357       .  S
C1005      C1006   1.414       .  A
C1006      F1007   1.357       .  S
C1011      C1012   1.406       .  A
C1011      C1016   1.392       .  A
C1011      F1018   1.358       .  S
C1012      C1013   1.409       .  A
C1013      C1014   1.400       .  A
C1013      F1020   1.358       .  S
C1014      C1015   1.407       .  A
C1014      F1019   1.358       .  S
C1015      C1016   1.407       .  A
C1016      F1017   1.358       .  S
C1021      C1022   1.397       .  A
C1021      C1026   1.393       .  A
C1021      F1028   1.359       .  S
C1022      C1023   1.411       .  A
C1023      C1024   1.405       .  A
C1023      F1030   1.357       .  S
C1024      C1025   1.408       .  A
C1024      F1029   1.352       .  S
C1025      C1026   1.420       .  A
C1026      F1027   1.356       .  S
C1031      C1032   1.420       .  A
C1031      C1036   1.400       .  A
C1031      F1038   1.357   1_655  S
C1032      C1033   1.397       .  A
C1033      C1034   1.385       .  A
C1033      F1040   1.358       .  S
C1034      C1035   1.424       .  A
C1034      F1039   1.359       .  S
C1035      C1036   1.402       .  A
C1036      F1037   1.357       .  S
C1041      C1042   1.413       .  A
C1041      C1046   1.406       .  A
C1041      F1048   1.358       .  S
C1042      C1043   1.396       .  A
C1043      C1044   1.395       .  A
C1043      F1050   1.358       .  S
C1044      C1045   1.420       .  A
C1044      F1049   1.357       .  S
C1045      C1046   1.409       .  A
C1046      F1047   1.357       .  S
C1051      C1052   1.397       .  A
C1051      C1056   1.390       .  A
C1051      F1058   1.358       .  S
C1052      C1053   1.421       .  A
C1053      C1054   1.403       .  A
C1053      F1060   1.358   1_455  S
C1054      C1055   1.398       .  A
C1054      F1059   1.358       .  S
C1055      C1056   1.421       .  A
C1056      F1057   1.359       .  S
C1061      C1062   1.408       .  A
C1061      C1066   1.400   1_545  A
C1061      F1068   1.358       .  S
C1062      C1063   1.408   1_655  A
C1063      C1064   1.395   1_545  A
C1063      F1070   1.358       .  S
C1064      C1065   1.406   1_455  A
C1064      F1069   1.359       .  S
C1065      C1066   1.406       .  A
C1066      F1067   1.358       .  S
C1071      C1072   1.404       .  A
C1071      C1076   1.381       .  A
C1071      F1078   1.355       .  S
C1072      C1073   1.398       .  A
C1073      C1074   1.396       .  A
C1073      F1080   1.358       .  S
C1074      C1075   1.416       .  A
C1074      F1079   1.357       .  S
C1075      C1076   1.403       .  A
C1076      F1077   1.358       .  S
C1081      C1082   1.421       .  A
C1081      C1086   1.389       .  A
C1081      F1088   1.359       .  S
C1082      C1083   1.405       .  A
C1083      C1084   1.408       .  A
C1083      F1090   1.356       .  S
C1084      C1085   1.419       .  A
C1084      F1089   1.357       .  S
C1085      C1086   1.397       .  A
C1086      F1087   1.359       .  S
C1091      C1092   1.407       .  A
C1091      C1096   1.406       .  A
C1091      F1098   1.357       .  S
C1092      C1093   1.422       .  A
C1093      C1094   1.389       .  A
C1093      F1100   1.359       .  S
C1094      C1095   1.396       .  A
C1094      F1099   1.359       .  S
C1095      C1096   1.411       .  A
C1096      F1097   1.354       .  S
C1101      C1102   1.417       .  A
C1101      C1106   1.402       .  A
C1101      F1108   1.357       .  S
C1102      C1103   1.403       .  A
C1103      C1104   1.392       .  A
C1103      F1110   1.358       .  S
C1104      C1105   1.415       .  A
C1104      F1109   1.358       .  S
C1105      C1106   1.400       .  A
C1106      F1107   1.357       .  S
C1111      C1112   1.408       .  A
C1111      C1116   1.392   1_545  A
C1111      F1118   1.358       .  S
C1112      C1113   1.409   1_655  A
C1113      C1114   1.401   1_545  A
C1113      F1120   1.358       .  S
C1114      C1115   1.409   1_455  A
C1114      F1119   1.358       .  S
C1115      C1116   1.407       .  A
C1116      F1117   1.358       .  S
C1121      C1122   1.407       .  A
C1121      C1126   1.404       .  A
C1121      F1128   1.357       .  S
C1122      C1123   1.418       .  A
C1123      C1124   1.391       .  A
C1123      F1130   1.354       .  S
C1124      C1125   1.396       .  A
C1124      F1129   1.359       .  S
C1125      C1126   1.412       .  A
C1126      F1127   1.357       .  S
C1131      C1132   1.409       .  A
C1131      C1136   1.392       .  A
C1131      F1138   1.358       .  S
C1132      C1133   1.396       .  A
C1133      C1134   1.394       .  A
C1133      F1140   1.358       .  S
C1134      C1135   1.411       .  A
C1134      F1139   1.356       .  S
C1135      C1136   1.402       .  A
C1136      F1137   1.359       .  S
C1141      C1142   1.419       .  A
C1141      C1146   1.399       .  A
C1141      F1148   1.358   1_545  S
C1142      C1143   1.401       .  A
C1143      C1144   1.389       .  A
C1143      F1150   1.358       .  S
C1144      C1145   1.413       .  A
C1144      F1149   1.359       .  S
C1145      C1146   1.399       .  A
C1146      F1147   1.358       .  S
C1151      C1152   1.416       .  A
C1151      C1156   1.409       .  A
C1151      F1158   1.357       .  S
C1152      C1153   1.395       .  A
C1153      C1154   1.389       .  A
C1153      F1160   1.359       .  S
C1154      C1155   1.423       .  A
C1154      F1159   1.359       .  S
C1155      C1156   1.405       .  A
C1156      F1157   1.357       .  S
C1161      C1162   1.412       .  A
C1161      C1166   1.407       .  A
C1161      F1168   1.358       .  S
C1162      C1163   1.402       .  A
C1163      C1164   1.392       .  A
C1163      F1170   1.359       .  S
C1164      C1165   1.413       .  A
C1164      F1169   1.357       .  S
C1165      C1166   1.410       .  A
C1166      F1167   1.357       .  S
C1171      C1172   1.399       .  A
C1171      C1176   1.386       .  A
C1171      F1178   1.358       .  S
C1172      C1173   1.418       .  A
C1173      C1174   1.404       .  A
C1173      F1180   1.357       .  S
C1174      C1175   1.400       .  A
C1174      F1179   1.358       .  S
C1175      C1176   1.415       .  A
C1176      F1177   1.358       .  S
C1181      C1182   1.393       .  A
C1181      C1186   1.393       .  A
C1181      F1188   1.358       .  S
C1182      C1183   1.415       .  A
C1183      C1184   1.387       .  A
C1183      F1190   1.359       .  S
C1184      C1185   1.402       .  A
C1184      F1189   1.359       .  S
C1185      C1186   1.418       .  A
C1186      F1187   1.355       .  S
C1191      C1192   1.416       .  A
C1191      C1196   1.409       .  A
C1191      F1198   1.355       .  S
C1192      C1193   1.395       .  A
C1193      C1194   1.389       .  A
C1193      F1200   1.358       .  S
C1194      C1195   1.421       .  A
C1194      F1199   1.358       .  S
C1195      C1196   1.408       .  A
C1196      F1197   1.357       .  S
C1201      C1202   1.394       .  A
C1201      C1206   1.389       .  A
C1201      F1208   1.354       .  S
C1202      C1203   1.424       .  A
C1203      C1204   1.398       .  A
C1203      F1210   1.355   1_545  S
C1204      C1205   1.397       .  A
C1204      F1209   1.358       .  S
C1205      C1206   1.419       .  A
C1206      F1207   1.358       .  S
C1211      C1212   1.413       .  A
C1211      C1216   1.405       .  A
C1211      F1218   1.357       .  S
C1212      C1213   1.400       .  A
C1213      C1214   1.393       .  A
C1213      F1220   1.358       .  S
C1214      C1215   1.416       .  A
C1214      F1219   1.357       .  S
C1215      C1216   1.409       .  A
C1216      F1217   1.358       .  S
C1221      C1222   1.408   1_545  A
C1221      C1226   1.391   1_556  A
C1221      F1228   1.359       .  S
C1222      C1223   1.410       .  A
C1223      C1224   1.390   1_556  A
C1223      F1230   1.358       .  S
C1224      C1225   1.407       .  A
C1224      F1229   1.358       .  S
C1225      C1226   1.410   1_565  A
C1226      F1227   1.358       .  S
C1231      C1232   1.408       .  A
C1231      C1236   1.407       .  A
C1231      F1238   1.352       .  S
C1232      C1233   1.423       .  A
C1233      C1234   1.389       .  A
C1233      F1240   1.359       .  S
C1234      C1235   1.398       .  A
C1234      F1239   1.359       .  S
C1235      C1236   1.410       .  A
C1236      F1237   1.357       .  S
C1241      C1242   1.400       .  A
C1241      C1246   1.383       .  A
C1241      F1248   1.359       .  S
C1242      C1243   1.421       .  A
C1243      C1244   1.403       .  A
C1243      F1250   1.357   1_565  S
C1244      C1245   1.400       .  A
C1244      F1249   1.357       .  S
C1245      C1246   1.421       .  A
C1246      F1247   1.360       .  S
C1251      C1252   1.409       .  A
C1251      C1256   1.393   1_554  A
C1251      F1258   1.358       .  S
C1252      C1253   1.410   1_565  A
C1253      C1254   1.398   1_554  A
C1253      F1260   1.358       .  S
C1254      C1255   1.409   1_545  A
C1254      F1259   1.358       .  S
C1255      C1256   1.410       .  A
C1256      F1257   1.358       .  S
C1261      C1262   1.419       .  A
C1261      C1266   1.399       .  A
C1261      F1268   1.357   1_554  S
C1262      C1263   1.397       .  A
C1263      C1264   1.389       .  A
C1263      F1270   1.359       .  S
C1264      C1265   1.428       .  A
C1264      F1269   1.360       .  S
C1265      C1266   1.399       .  A
C1266      F1267   1.355       .  S
C1271      C1272   1.413       .  A
C1271      C1276   1.402       .  A
C1271      F1278   1.357       .  S
C1272      C1273   1.400       .  A
C1273      C1274   1.394       .  A
C1273      F1280   1.359       .  S
C1274      C1275   1.419       .  A
C1274      F1279   1.357       .  S
C1275      C1276   1.405       .  A
C1276      F1277   1.357       .  S
C1281      C1282   1.412       .  A
C1281      C1286   1.392   1_655  A
C1281      F1288   1.358       .  S
C1282      C1283   1.407   1_556  A
C1283      C1284   1.399   1_655  A
C1283      F1290   1.358       .  S
C1284      C1285   1.409   1_554  A
C1284      F1289   1.358       .  S
C1285      C1286   1.407       .  A
C1286      F1287   1.358       .  S
C1291      C1292   1.418       .  A
C1291      C1296   1.410       .  A
C1291      F1298   1.356       .  S
C1292      C1293   1.394       .  A
C1293      C1294   1.390       .  A
C1293      F1300   1.358       .  S
C1294      C1295   1.423       .  A
C1294      F1299   1.359       .  S
C1295      C1296   1.406       .  A
C1296      F1297   1.357       .  S
C1301      C1302   1.403       .  A
C1301      C1306   1.394       .  A
C1301      F1308   1.358       .  S
C1302      C1303   1.412       .  A
C1303      C1304   1.393       .  A
C1303      F1310   1.354       .  S
C1304      C1305   1.395       .  A
C1304      F1309   1.355       .  S
C1305      C1306   1.410       .  A
C1306      F1307   1.357       .  S
C1311      C1312   1.406       .  A
C1311      C1316   1.395   1_655  A
C1311      F1318   1.358       .  S
C1312      C1313   1.409   1_554  A
C1313      C1314   1.401   1_655  A
C1313      F1320   1.358       .  S
C1314      C1315   1.409   1_556  A
C1314      F1319   1.357       .  S
C1315      C1316   1.410       .  A
C1316      F1317   1.358       .  S
