geometry optimzed in LAMMPS
_audit_creation_date              2020-11-30 
_audit_creation_method            'lammps2cif' 
_symmetry_space_group_name_H-M    'P1' 
_symmetry_Int_Tables_number       1 
_symmetry_cell_setting            triclinic 
loop_ 
_symmetry_equiv_pos_as_xyz 
  x,y,z 
_cell_length_a                    56.48471727 
_cell_length_b                    57.43426504585693 
_cell_length_c                    29.85822592069313 
_cell_angle_alpha                 91.49035126046661 
_cell_angle_beta                  86.14564566395863 
_cell_angle_gamma                 122.25933328480413 
loop_ 
_atom_site_label 
_atom_site_type_symbol 
_atom_site_fract_x 
_atom_site_fract_y 
_atom_site_fract_z 
_atom_site_charge 
In1        In  0.42714280  0.26950669  0.51996494     1.36900
C2          C  0.45939330  0.24889630  0.51235702     0.77100
O3          O  0.45306502  0.30066555  0.57002343    -0.61300
O4          O  0.42159453  0.26040402  0.59383856    -0.52200
C5          C  0.42579840  0.30596591  0.46892579     0.69800
O6          O  0.44132196  0.29678363  0.45837752    -0.47100
C7          C  0.37535665  0.22622438  0.52053240     0.74500
O8          O  0.46895448  0.27358516  0.52324011    -0.58900
O9          O  0.38286955  0.24567833  0.54803208    -0.49000
O10         O  0.43625684  0.23751422  0.49435759    -0.55400
C11         C  0.44237598  0.28375859  0.60249784     0.84700
O12         O  0.41284974  0.29797272  0.50668642    -0.57300
O13         O  0.39402012  0.23001183  0.49061218    -0.60600
In14       In  0.25221343  0.08105894  0.63762642     1.36900
C15         C  0.28044781  0.12340856  0.58015294     0.77100
O16         O  0.21552116  0.08558985  0.63987910    -0.61300
O17         O  0.23371595  0.08688154  0.70122018    -0.52200
C18         C  0.23016169  0.03423164  0.59252399     0.69800
O19         O  0.25571941  0.04864942  0.60038217    -0.47100
C20         C  0.28813919  0.09020492  0.69837186     0.74500
O21         O  0.26118413  0.12046252  0.60753135    -0.58900
O22         O  0.26583162  0.06688556  0.69496184    -0.49000
O23         O  0.28351820  0.10320890  0.57907189    -0.55400
C24         C  0.21674838  0.09028646  0.68143936     0.84700
O25         O  0.21526942  0.04206784  0.61240147    -0.57300
O26         O  0.29158870  0.10811837  0.67081414    -0.60600
In27       In  0.40649696  0.10690729  0.63078755     1.36900
C28         C  0.38098618  0.10982605  0.70352634     0.77100
O29         O  0.37691397  0.06297981  0.64000319    -0.61300
O30         O  0.41925105  0.07869439  0.65707792    -0.52200
C31         C  0.39481550  0.10056920  0.54749594     0.69800
O32         O  0.37861623  0.10198141  0.57727646    -0.47100
C33         C  0.44196827  0.15881388  0.60836777     0.74500
O34         O  0.37140060  0.10625579  0.66507763    -0.58900
O35         O  0.45000705  0.14189502  0.60630436    -0.49000
O36         O  0.40526509  0.11374223  0.70491597    -0.55400
C37         C  0.39390986  0.05842869  0.65702245     0.84700
O38         O  0.41427564  0.09856304  0.56162557    -0.57300
O39         O  0.41809418  0.14965266  0.62759707    -0.60600
In40       In  0.08688692  0.40117442  0.26279921     1.36900
C41         C  0.54061491  0.39415317  0.20775445     0.77100
O42         O  0.08207992  0.36219429  0.28819533    -0.61300
O43         O  0.05725247  0.37658174  0.31938810    -0.52200
C44         C  0.12516197  0.40683299  0.20135782     0.69800
O45         O  0.09963935  0.39614392  0.19431128    -0.47100
C46         C  0.10719119  0.44694234  0.30759955     0.74500
O47         O  0.04573636  0.37601240  0.22977514    -0.58900
O48         O  0.10830501  0.44637352  0.26530985    -0.49000
O49         O  0.06128195  0.41794574  0.24251110    -0.55400
C50         C  0.06242085  0.35786013  0.31646648     0.84700
O51         O  0.13131114  0.41305561  0.24154853    -0.57300
O52         O  0.09980924  0.42450343  0.32671890    -0.60600
In53       In  0.01807543  0.01503777  0.36410687     1.36900
C54         C  0.05727369  0.00312906  0.34883702     0.77100
O55         O  0.05263847  0.05891819  0.35473346    -0.61300
O56         O  0.03960279  0.04207330  0.42110232    -0.52200
C57         C  0.99520037  0.01786297  0.29115341     0.69800
O58         O  0.00205077  0.00047232  0.29606914    -0.47100
C59         C  0.97487771  0.97628481  0.41373915     0.74500
O60         O  0.04694873  0.00888002  0.31800146    -0.58900
O61         O  0.97880320  0.00001429  0.41026790    -0.49000
O62         O  0.04605419  0.00163279  0.38742702    -0.55400
C63         C  0.05848563  0.06046656  0.39502292     0.84700
O64         O  0.99850945  0.03275444  0.32505556    -0.57300
O65         O  0.99304193  0.97321124  0.39255498    -0.60600
In66       In  0.38559132  0.37011265  0.27438875     1.36900
C67         C  0.40517208  0.38771469  0.35301277     0.77100
O68         O  0.38152885  0.40605278  0.26797914    -0.61300
O69         O  0.34818227  0.36972343  0.30307187    -0.52200
C70         C  0.35439553  0.33425805  0.21631736     0.69800
O71         O  0.36521012  0.35990934  0.21183508    -0.47100
C72         C  0.43119083  0.37541036  0.23520600     0.74500
O73         O  0.41652974  0.40127035  0.31699734    -0.58900
O74         O  0.41448555  0.35546711  0.26140284    -0.49000
O75         O  0.38450193  0.36314927  0.34886543    -0.55400
C76         C  0.35895041  0.39485165  0.29286373     0.84700
O77         O  0.35757086  0.32606171  0.25339126    -0.57300
O78         O  0.42410174  0.39257510  0.22846559    -0.60600
In79       In  0.02171093  0.18393733  0.90690697     1.36900
C80         C  0.06974510  0.22563101  0.87062694     0.77100
O81         O  0.03293838  0.21546023  0.96081336    -0.61300
O82         O  0.99721206  0.20411641  0.92470796    -0.52200
C83         C  0.98410176  0.14919663  0.85146786     0.69800
O84         O  0.00970575  0.15721866  0.84688890    -0.47100
C85         C  0.02941349  0.15128950  0.95587867     0.74500
O86         O  0.04650545  0.21841496  0.85524612    -0.58900
O87         O  0.01506857  0.16098611  0.97147383    -0.49000
O88         O  0.06815981  0.20922264  0.89940150    -0.55400
C89         C  0.50685561  0.21903258  0.95830548     0.84700
O90         O  0.97742878  0.15864593  0.88529083    -0.57300
O91         O  0.03604245  0.15542842  0.91453899    -0.60600
In92       In  0.17543371  0.23967708  0.02097218     1.36900
C93         C  0.12576001  0.19385883  0.01698241     0.77100
O94         O  0.19701251  0.21677359  0.01858534    -0.61300
O95         O  0.18321108  0.22423876  0.08251344    -0.52200
C96         C  0.20412387  0.26540408  0.94539701     0.69800
O97         O  0.17843279  0.24667594  0.94793134    -0.47100
C98         C  0.16389281  0.27626363  0.05251763     0.74500
O99         O  0.14336807  0.20334353  0.98351036    -0.58900
O100        O  0.18684021  0.27838824  0.05965549    -0.49000
O101        O  0.13381278  0.20798624  0.05201847    -0.55400
C102        C  0.19030850  0.20999704  0.05932424     0.84700
O103        O  0.21577400  0.27117855  0.98230420    -0.57300
O104        O  0.14723529  0.25514811  0.03127540    -0.60600
In105      In  0.17087780  0.38243521  0.93237358     1.36900
C106        C  0.14837727  0.35758569  0.00981832     0.77100
O107        O  0.21024996  0.38326917  0.93934469    -0.61300
O108        O  0.20891557  0.41880987  0.95844666    -0.52200
C109        C  0.16758509  0.41631895  0.87937785     0.69800
O110        O  0.18698953  0.41162094  0.87587579    -0.47100
C111        C  0.15181870  0.33784569  0.88306983     0.74500
O112        O  0.13589052  0.34818608  0.97438151    -0.58900
O113        O  0.13903594  0.35025152  0.88960724    -0.49000
O114        O  0.16710046  0.38283439  0.00783922    -0.55400
C115        C  0.22232406  0.40685729  0.95691504     0.84700
O116        O  0.15034325  0.40527299  0.91304064    -0.57300
O117        O  0.17604442  0.34995768  0.89788343    -0.60600
In118      In  0.29428192  0.43839290  0.02231490     1.36900
C119        C  0.31158269  0.40303042  0.01254737     0.77100
O120        O  0.25483756  0.40325392  0.99742720    -0.61300
O121        O  0.26595668  0.44396066  0.98105643    -0.52200
C122        C  0.27976368  0.45400592  0.10023177     0.69800
O123        O  0.27312702  0.42948414  0.09324904    -0.47100
C124        C  0.34313477  0.47791726  0.98604387     0.74500
O125        O  0.31296898  0.41540311  0.04896001    -0.58900
O126        O  0.32068824  0.46904098  0.96675156    -0.49000
O127        O  0.29897135  0.40665838  0.98295389    -0.55400
C128        C  0.24867707  0.41839325  0.97811108     0.84700
O129        O  0.29318736  0.47005886  0.06749357    -0.57300
O130        O  0.34010483  0.46851569  0.02500693    -0.60600
In131      In  0.27830392  0.48372521  0.22738079     1.36900
C132        C  0.28281797  0.45435273  0.29146624     0.77100
O133        O  0.26222667  0.44845330  0.17789221    -0.61300
O134        O  0.28563383  0.48930861  0.15197546    -0.52200
C135        C  0.22154737  0.98633773  0.25959314     0.69800
O136        O  0.23440769  0.47543026  0.25054933    -0.47100
C137        C  0.31073779  0.02323992  0.24038147     0.74500
O138        O  0.27796134  0.44635187  0.25168709    -0.58900
O139        O  0.30465177  0.01043489  0.20388525    -0.49000
O140        O  0.28175069  0.47530955  0.29994866    -0.55400
C141        C  0.27491986  0.46399339  0.14410115     0.84700
O142        O  0.24035325  0.99958168  0.22903109    -0.57300
O143        O  0.29146314  0.01304032  0.27093155    -0.60600
In144      In  0.19668706  0.02921851  0.34590947     1.36900
C145        C  0.16600692  0.04807485  0.38721665     0.77100
O146        O  0.16933774  0.49641331  0.35207238    -0.61300
O147        O  0.22338000  0.03294070  0.39951383    -0.52200
C148        C  0.22766214  0.51271802  0.27460758     0.69800
O149        O  0.20222979  0.50527130  0.27000135    -0.47100
C150        C  0.22010595  0.07410203  0.29782654     0.74500
O151        O  0.15632342  0.02996188  0.35652470    -0.58900
O152        O  0.23318899  0.07074714  0.32738577    -0.49000
O153        O  0.19011362  0.05480192  0.39797709    -0.55400
C154        C  0.20404526  0.01155662  0.42045896     0.84700
O155        O  0.22691560  0.02391817  0.30272856    -0.57300
O156        O  0.19600180  0.05348735  0.29032990    -0.60600
In157      In  0.49579002  0.27684218  0.02188223     1.36900
C158        C  0.04788010  0.33228957  0.01092264     0.77100
O159        O  0.03096707  0.25979502  0.99972807    -0.61300
O160        O  0.99064372  0.24357279  0.97496704    -0.52200
C161        C  0.48203364  0.24920986  0.10034662     0.69800
O162        O  0.50704621  0.26685040  0.08741235    -0.47100
C163        C  0.46090242  0.28699442  0.98602695     0.74500
O164        O  0.03408498  0.32266791  0.04805686    -0.58900
O165        O  0.46709414  0.27051444  0.96865317    -0.49000
O166        O  0.04309057  0.31393065  0.98232742    -0.55400
C167        C  0.01179047  0.24163336  0.97648053     0.84700
O168        O  0.46404591  0.24788121  0.07570844    -0.57300
O169        O  0.46830146  0.29424343  0.02559939    -0.60600
In170      In  0.45869469  0.20522743  0.22055343     1.36900
C171        C  0.41984656  0.21477002  0.25190846     0.77100
O172        O  0.46714725  0.21253351  0.29431229    -0.61300
O173        O  0.50001961  0.23861771  0.24709207    -0.52200
C174        C  0.43827881  0.15121016  0.21790470     0.69800
O175        O  0.42623212  0.16225303  0.20315207    -0.47100
C176        C  0.47421578  0.23164446  0.14093272     0.74500
O177        O  0.41990267  0.19398588  0.26392475    -0.58900
O178        O  0.49178762  0.23182982  0.16539332    -0.49000
O179        O  0.43920774  0.23023501  0.22365476    -0.55400
C180        C  0.49091716  0.23411185  0.28771294     0.84700
O181        O  0.46355256  0.16806809  0.22636274    -0.57300
O182        O  0.44900330  0.21550895  0.15462232    -0.60600
In183      In  0.38828994  0.07617566  0.28157379     1.36900
C184        C  0.33876812  0.04570036  0.24997299     0.77100
O185        O  0.39522562  0.11002276  0.23742084    -0.61300
O186        O  0.43128203  0.10883850  0.24866665    -0.52200
C187        C  0.39314302  0.10034335  0.35859457     0.69800
O188        O  0.37126062  0.09089735  0.33724287    -0.47100
C189        C  0.38485367  0.03049475  0.30993539     0.74500
O190        O  0.34285418  0.05947910  0.28538653    -0.58900
O191        O  0.39426870  0.03992300  0.27037031    -0.49000
O192        O  0.36057478  0.05009882  0.22741655    -0.55400
C193        C  0.42152848  0.12211861  0.23298144     0.84700
O194        O  0.41298318  0.09943804  0.33815601    -0.57300
O195        O  0.38159884  0.04636270  0.33544459    -0.60600
In196      In  0.16195080  0.13120906  0.09368255     1.36900
C197        C  0.10645787  0.10963286  0.08292012     0.77100
O198        O  0.16777511  0.17182849  0.10938268    -0.61300
O199        O  0.18951114  0.16831324  0.05062725    -0.52200
C200        C  0.19574302  0.14136832  0.16106441     0.69800
O201        O  0.17167280  0.13794428  0.16735276    -0.47100
C202        C  0.15942451  0.09364158  0.03756046     0.74500
O203        O  0.11513868  0.10229487  0.11456408    -0.58900
O204        O  0.17442097  0.11909875  0.02823570    -0.49000
O205        O  0.12589973  0.12978027  0.06023354    -0.55400
C206        C  0.18380230  0.18332100  0.07479116     0.84700
O207        O  0.20132949  0.13701256  0.12131915    -0.57300
O208        O  0.14912907  0.08784728  0.07759506    -0.60600
In209      In  0.24162809  0.15227944  0.27113945     1.36900
C210        C  0.20767142  0.14676082  0.34122409     0.77100
O211        O  0.21331761  0.16039763  0.23326959    -0.61300
O212        O  0.23440953  0.14380052  0.19666502    -0.52200
C213        C  0.29541335  0.19291974  0.28652509     0.69800
O214        O  0.28778211  0.18401223  0.24754444    -0.47100
C215        C  0.22990552  0.10121858  0.27951465     0.74500
O216        O  0.22507073  0.13948792  0.34169067    -0.58900
O217        O  0.21292537  0.10671859  0.26603402    -0.49000
O218        O  0.20973239  0.16003893  0.30655230    -0.55400
C219        C  0.21532743  0.14913905  0.19751080     0.84700
O220        O  0.27530984  0.18349868  0.31565151    -0.57300
O221        O  0.25436492  0.12172113  0.28294339    -0.60600
In222      In  0.37891834  0.24462298  0.31879701     1.36900
C223        C  0.40087572  0.22226007  0.27228910     0.77100
O224        O  0.33339072  0.21197743  0.33723286    -0.61300
O225        O  0.34460190  0.22776683  0.26988041    -0.52200
C226        C  0.37929936  0.28811282  0.34166034     0.69800
O227        O  0.36779028  0.26676987  0.36678612    -0.47100
C228        C  0.42825858  0.26697803  0.35802489     0.74500
O229        O  0.38670564  0.21122498  0.30897685    -0.58900
O230        O  0.42459063  0.27629402  0.32289745    -0.49000
O231        O  0.40021868  0.24236269  0.25689239    -0.55400
C232        C  0.32522218  0.21154011  0.29819074     0.84700
O233        O  0.38622482  0.28528684  0.30136807    -0.57300
O234        O  0.40570897  0.24640180  0.37612950    -0.60600
In235      In  0.01214128  0.28608240  0.38684169     1.36900
C236        C  0.45760434  0.27865697  0.37217597     0.77100
O237        O  0.02507917  0.32862073  0.36872382    -0.61300
O238        O  0.04866478  0.31246579  0.33851228    -0.52200
C239        C  0.04267817  0.30119076  0.46156447     0.69800
O240        O  0.02382188  0.30618392  0.45622459    -0.47100
C241        C  0.00141903  0.24562838  0.33046077     0.74500
O242        O  0.46487965  0.26815191  0.40090270    -0.58900
O243        O  0.02268115  0.26957722  0.32434687    -0.49000
O244        O  0.47824486  0.29936240  0.35225475    -0.55400
C245        C  0.04532820  0.33247553  0.34235279     0.84700
O246        O  0.04306209  0.28512554  0.43227103    -0.57300
O247        O  0.49632776  0.25045645  0.36411231    -0.60600
In248      In  0.09429098  0.33005466  0.57211319     1.36900
C249        C  0.06371661  0.33502100  0.63864694     0.77100
O250        O  0.06192808  0.32917603  0.52806659    -0.61300
O251        O  0.08233586  0.30921706  0.50310498    -0.52200
C252        C  0.14944031  0.37028393  0.58135947     0.69800
O253        O  0.13201614  0.37591380  0.56931740    -0.47100
C254        C  0.07811575  0.27979989  0.59971701     0.74500
O255        O  0.07952448  0.32636580  0.64410547    -0.58900
O256        O  0.07898712  0.28514427  0.55880165    -0.49000
O257        O  0.06528444  0.34379889  0.59956859    -0.55400
C258        C  0.06283226  0.31351534  0.49836432     0.84700
O259        O  0.14006894  0.34492903  0.57976194    -0.57300
O260        O  0.08791114  0.30030318  0.62501341    -0.60600
In261      In  0.22258591  0.42242230  0.64896611     1.36900
C262        C  0.24839350  0.40202383  0.60872159     0.77100
O263        O  0.18482713  0.38160253  0.63308610    -0.61300
O264        O  0.19226687  0.41600735  0.59451871    -0.52200
C265        C  0.19532803  0.43191100  0.71242422     0.69800
O266        O  0.19823300  0.41144405  0.71309262    -0.47100
C267        C  0.27360748  0.45427214  0.68324635     0.74500
O268        O  0.23194623  0.39045696  0.64337698    -0.58900
O269        O  0.26607372  0.46250655  0.65069529    -0.49000
O270        O  0.24951103  0.42291255  0.59217348    -0.55400
C271        C  0.17653836  0.39008671  0.60255643     0.84700
O272        O  0.20681973  0.44812255  0.67861043    -0.57300
O273        O  0.25427154  0.43113388  0.69999097    -0.60600
In274      In  0.33235150  0.43955622  0.36304707     1.36900
C275        C  0.36893223  0.49302783  0.34219456     0.77100
O276        O  0.36502161  0.43563947  0.32466031    -0.61300
O277        O  0.32303356  0.40081564  0.32740474    -0.52200
C278        C  0.32417473  0.41449012  0.44433392     0.69800
O279        O  0.34776654  0.43442074  0.42976350    -0.47100
C280        C  0.29433520  0.44375815  0.32221125     0.74500
O281        O  0.35139338  0.48566248  0.37577017    -0.58900
O282        O  0.30195754  0.42758412  0.30910564    -0.49000
O283        O  0.37010538  0.47359838  0.32408248    -0.55400
C284        C  0.34841910  0.41093366  0.31416964     0.84700
O285        O  0.30477065  0.40898695  0.41932054    -0.57300
O286        O  0.30210185  0.45388064  0.36041114    -0.67800
In287      In  0.30613292  0.38164396  0.57406007     1.36900
C288        C  0.26727417  0.39347703  0.59251513     0.77100
O289        O  0.31187618  0.39828362  0.64332878    -0.61300
O290        O  0.34780685  0.41669071  0.59775325    -0.52200
C291        C  0.28905451  0.32983343  0.59979499     0.69800
O292        O  0.27580065  0.33576307  0.57493767    -0.47100
C293        C  0.31892126  0.39957567  0.48780030     0.74500
O294        O  0.26501937  0.37190520  0.60658066    -0.58900
O295        O  0.33770945  0.40470841  0.51427275    -0.49000
O296        O  0.28879042  0.40852706  0.56748077    -0.55400
C297        C  0.33690254  0.41750060  0.63568360     0.84700
O298        O  0.31403331  0.34953067  0.60406011    -0.57300
O299        O  0.29449368  0.38163844  0.50289260    -0.60600
In300      In  0.24101038  0.25951401  0.68262499     1.36900
C301        C  0.19595808  0.23243754  0.63752790     0.77100
O302        O  0.24765602  0.29097249  0.63256339    -0.61300
O303        O  0.28465587  0.29334106  0.64929926    -0.52200
C304        C  0.24122235  0.28140870  0.76198210     0.69800
O305        O  0.22254338  0.27443145  0.73443911    -0.47100
C306        C  0.22879710  0.20976046  0.71347220     0.74500
O307        O  0.19778583  0.24806805  0.66957432    -0.58900
O308        O  0.24530574  0.22126283  0.67878359    -0.49000
O309        O  0.21801065  0.23257119  0.62626506    -0.55400
C310        C  0.27391217  0.30369604  0.62702547     0.84700
O311        O  0.26188791  0.27990004  0.74676070    -0.57300
O312        O  0.22193045  0.22491805  0.73367845    -0.60600
In313      In  0.13972938  0.10181381  0.42626084     1.36900
C314        C  0.15257450  0.06313018  0.40588441     0.77100
O315        O  0.09482252  0.07165828  0.44234272    -0.61300
O316        O  0.10660616  0.09618291  0.38245779    -0.52200
C317        C  0.13315465  0.12747423  0.49870060     0.69800
O318        O  0.13238102  0.10508431  0.50162253    -0.47100
C319        C  0.18439262  0.13617394  0.37534778     0.74500
O320        O  0.16069385  0.07813997  0.44041543    -0.58900
O321        O  0.16019518  0.13027154  0.36654422    -0.49000
O322        O  0.13482999  0.06509700  0.38555983    -0.55400
C323        C  0.08717405  0.07755046  0.40787245     0.84700
O324        O  0.13999834  0.13791500  0.45973740    -0.57300
O325        O  0.18596989  0.12787507  0.41312519    -0.60600
In326      In  0.12041980  0.16522107  0.61141072     1.36900
C327        C  0.12736512  0.13948030  0.67689252     0.77100
O328        O  0.11583059  0.12805690  0.57473960    -0.61300
O329        O  0.13104778  0.16447905  0.53640425    -0.52200
C330        C  0.07778258  0.17353352  0.62745173     0.69800
O331        O  0.08642445  0.16484603  0.65639240    -0.47100
C332        C  0.16915780  0.21214820  0.62007550     0.74500
O333        O  0.11121990  0.12611987  0.64608895    -0.58900
O334        O  0.16659845  0.19376642  0.59348113    -0.49000
O335        O  0.13696848  0.16483329  0.67648226    -0.55400
C336        C  0.12643377  0.14032305  0.53746091     0.84700
O337        O  0.08794363  0.17420308  0.58811628    -0.57300
O338        O  0.14644521  0.20848183  0.63685796    -0.60600
In339      In  0.03037883  0.20743997  0.66288404     1.36900
C340        C  0.51706107  0.24316965  0.68344695     0.77100
O341        O  0.98803000  0.16942384  0.65867681    -0.61300
O342        O  0.00995284  0.18003646  0.71999248    -0.52200
C343        C  0.05970093  0.18452849  0.64008206     0.69800
O344        O  0.04401130  0.18590696  0.61305694    -0.47100
C345        C  0.06356301  0.25209588  0.61858867     0.74500
O346        O  0.50925686  0.22853989  0.64825114    -0.58900
O347        O  0.06860099  0.24808126  0.65763313    -0.49000
O348        O  0.53683142  0.24360260  0.70269242    -0.55400
C349        C  0.98797190  0.16376714  0.69966748     0.84700
O350        O  0.06000805  0.19462817  0.67875035    -0.57300
O351        O  0.04278148  0.23177682  0.60017002    -0.60600
In352      In  0.17764065  0.12518498  0.74396812     1.36900
C353        C  0.21484515  0.18010027  0.72729375     0.77100
O354        O  0.20942464  0.11396294  0.74108280    -0.61300
O355        O  0.18195275  0.10162853  0.68729531    -0.52200
C356        C  0.15672587  0.09142225  0.81751094     0.69800
O357        O  0.17956987  0.11462973  0.81674554    -0.47100
C358        C  0.13888962  0.12859271  0.70629749     0.74500
O359        O  0.19980414  0.17052652  0.76361042    -0.58900
O360        O  0.14555149  0.11174117  0.69255323    -0.49000
O361        O  0.21352109  0.16165906  0.70180003    -0.55400
C362        C  0.20185302  0.10166831  0.70423124     0.84700
O363        O  0.14374984  0.08659202  0.78233397    -0.57300
O364        O  0.14839889  0.13990558  0.74317777    -0.60600
In365      In  0.12377614  0.04126663  0.93288322     1.36900
C366        C  0.07853480  0.04296586  0.95680941     0.77100
O367        O  0.12577666  0.05118390  0.00619481    -0.61300
O368        O  0.16260193  0.07605355  0.96451395    -0.52200
C369        C  0.13016951  0.49676661  0.93229534     0.69800
O370        O  0.12487630  0.50363408  0.89614597    -0.47100
C371        C  0.14566317  0.07169618  0.85635255     0.74500
O372        O  0.07831363  0.02101581  0.95867698    -0.58900
O373        O  0.16076096  0.07233365  0.88642431    -0.49000
O374        O  0.10052093  0.06285517  0.93854660    -0.55400
C375        C  0.14991470  0.07256403  0.00259789     0.84700
O376        O  0.12813058  0.00803609  0.96348511    -0.57300
O377        O  0.11999258  0.05314369  0.86280194    -0.60600
In378      In  0.09160624  0.41601895  0.97986641     1.36900
C379        C  0.04274919  0.39902221  0.95067294     0.77100
O380        O  0.10591745  0.46030020  0.98693308    -0.61300
O381        O  0.11694241  0.44845009  0.92413014    -0.52200
C382        C  0.12806589  0.42400493  0.03631831     0.69800
O383        O  0.10959120  0.42999885  0.04526440    -0.47100
C384        C  0.06555329  0.36252119  0.00060637     0.74500
O385        O  0.04883294  0.40855881  0.99016721    -0.58900
O386        O  0.08242106  0.37296081  0.96568134    -0.49000
O387        O  0.06289168  0.40163146  0.92476646    -0.55400
C388        C  0.11780995  0.46772516  0.94778877     0.84700
O389        O  0.12958487  0.41626632  0.99638086    -0.57300
O390        O  0.06328762  0.37977839  0.02523464    -0.60600
In391      In  0.35842187  0.48530420  0.70965833     1.36900
C392        C  0.30336137  0.46843077  0.69763351     0.77100
O393        O  0.36042236  0.02115120  0.70279631    -0.61300
O394        O  0.39305299  0.01682007  0.67195304    -0.52200
C395        C  0.38582693  0.49757819  0.78738511     0.69800
O396        O  0.37212073  0.50801905  0.77697860    -0.47100
C397        C  0.34952164  0.44108005  0.66570400     0.74500
O398        O  0.31067143  0.45872783  0.72747143    -0.58900
O399        O  0.36806515  0.46498464  0.65185808    -0.49000
O400        O  0.32409624  0.48931017  0.67821123    -0.55400
C401        C  0.38290434  0.03173054  0.67838933     0.84700
O402        O  0.38433439  0.48007920  0.75954667    -0.57300
O403        O  0.33882636  0.43982491  0.70477564    -0.60600
In404      In  0.41642680  0.50497961  0.91338587     1.36900
C405        C  0.37079012  0.49374808  0.96277861     0.77100
O406        O  0.39493253  0.01076698  0.86371985    -0.61300
O407        O  0.41143735  0.49038674  0.84142497    -0.52200
C408        C  0.46350176  0.03111934  0.94520539     0.69800
O409        O  0.44389032  0.03548427  0.95278112    -0.47100
C410        C  0.40352242  0.45438995  0.93371931     0.74500
O411        O  0.39177932  0.49595721  0.97910539    -0.58900
O412        O  0.40446131  0.46174150  0.89396905    -0.49000
O413        O  0.37470214  0.50185650  0.92274197    -0.55400
C414        C  0.40088144  0.50375290  0.82959703     0.84700
O415        O  0.45822515  0.01322147  0.91556204    -0.57300
O416        O  0.41100482  0.47319151  0.96204374    -0.60600
In417      In  0.02731697  0.05940011  0.03259907     1.36900
C418        C  0.05722881  0.04674794  0.97961374     0.77100
O419        O  0.99688092  0.03414894  0.98149640    -0.61300
O420        O  0.99936648  0.07148263  0.99842748    -0.52200
C421        C  0.99662434  0.04002264  0.10893018     0.69800
O422        O  0.00257958  0.02563920  0.08332453    -0.47100
C423        C  0.07676751  0.09364428  0.06942466     0.74500
O424        O  0.03884004  0.02948840  0.00820286    -0.58900
O425        O  0.06669774  0.10224244  0.04181705    -0.49000
O426        O  0.05829245  0.06921373  0.97582156    -0.55400
C427        C  0.98743673  0.04932224  0.97594337     0.84700
O428        O  0.00452957  0.06359385  0.09336291    -0.57300
O429        O  0.06036586  0.06871654  0.08092373    -0.60600
In430      In  0.49161978  0.29864259  0.70560254     1.36900
C431        C  0.50534092  0.26023054  0.69778452     0.77100
O432        O  0.45175802  0.27073763  0.67133051    -0.61300
O433        O  0.47738030  0.31303059  0.65133989    -0.52200
C434        C  0.47244856  0.31251173  0.78034921     0.69800
O435        O  0.46346908  0.28782993  0.77020330    -0.47100
C436        C  0.04161572  0.32957125  0.67259166     0.74500
O437        O  0.51575738  0.27906042  0.72659266    -0.58900
O438        O  0.01954551  0.32788794  0.66240738    -0.49000
O439        O  0.48558242  0.25899871  0.67845172    -0.55400
C440        C  0.45649295  0.28947530  0.64405380     0.84700
O441        O  0.49191844  0.32976593  0.75380313    -0.57300
O442        O  0.04069815  0.32058115  0.71122689    -0.60600
In443      In  0.45243066  0.33665246  0.90150394     1.36900
C444        C  0.45170952  0.30115608  0.95859778     0.77100
O445        O  0.44374984  0.30398239  0.84916040    -0.61300
O446        O  0.47294418  0.34582195  0.83128176    -0.52200
C447        C  0.41389236  0.35085651  0.91552368     0.69800
O448        O  0.43980209  0.36765412  0.90996929    -0.47100
C449        C  0.50385290  0.37633318  0.92090356     0.74500
O450        O  0.44787027  0.29620537  0.91757607    -0.58900
O451        O  0.00722718  0.37504065  0.89800897    -0.49000
O452        O  0.45227451  0.32244435  0.97163101    -0.55400
C453        C  0.46233610  0.32088366  0.82082394     0.84700
O454        O  0.40667995  0.32623411  0.90863748    -0.57300
O455        O  0.48442224  0.36265854  0.95039324    -0.60600
In456      In  0.36428522  0.37600484  0.97906781     1.36900
C457        C  0.32707504  0.38911091  0.00300780     0.77100
O458        O  0.33542353  0.33491769  0.01148213    -0.61300
O459        O  0.37214885  0.36583759  0.04433315    -0.52200
C460        C  0.39515074  0.35974684  0.93478349     0.69800
O461        O  0.36913581  0.34823198  0.92812288    -0.47100
C462        C  0.39199103  0.42591748  0.94741606     0.74500
O463        O  0.32476009  0.37524338  0.96747896    -0.58900
O464        O  0.39622690  0.42004126  0.98569143    -0.49000
O465        O  0.34638638  0.39334407  0.02763317    -0.55400
C466        C  0.35017124  0.34179755  0.04535617     0.84700
O467        O  0.40465442  0.37958175  0.96196109    -0.57300
O468        O  0.37508366  0.40572655  0.92379949    -0.60600
C469        C  0.15394498  0.41428443  0.76513802    -0.26800
C470        C  0.18050560  0.43644326  0.75050560    -0.14800
C471        C  0.19583736  0.45817596  0.77991806     0.35800
C472        C  0.18731385  0.45457092  0.82581176    -0.26200
C473        C  0.16373193  0.42953823  0.84170082    -0.15500
C474        C  0.14491667  0.41116963  0.81076622     0.36900
N475        N  0.11922460  0.38680014  0.82674652    -0.89700
H476        H  0.14180741  0.39783148  0.74207399     0.18000
H477        H  0.20153909  0.46920793  0.84944684     0.18000
N478        N  0.22177514  0.48220005  0.76432434    -0.88700
H479        H  0.10834605  0.37456666  0.79982120     0.35400
H480        H  0.10656352  0.39312333  0.84270508     0.40500
H481        H  0.23782630  0.48376692  0.78227201     0.40100
H482        H  0.22043898  0.49936821  0.77176713     0.35000
C483        C  0.20293971  0.28103640  0.87003772    -0.26800
C484        C  0.21860788  0.27846137  0.90164703    -0.14800
C485        C  0.24583941  0.28465366  0.88847995     0.35800
C486        C  0.25446531  0.28807123  0.84224599    -0.26200
C487        C  0.23686941  0.28699200  0.80982208    -0.15500
C488        C  0.21206739  0.28594384  0.82469460     0.36900
N489        N  0.19531303  0.28858097  0.79369465    -0.89700
H490        H  0.18284815  0.27812812  0.88026791     0.18000
H491        H  0.27410508  0.28992954  0.83145791     0.18000
N492        N  0.26379706  0.28577692  0.92145965    -0.88700
H493        H  0.19339997  0.30510673  0.80380473     0.35400
H494        H  0.17526949  0.27069047  0.79582587     0.40500
H495        H  0.26840939  0.30242217  0.94232207     0.40100
H496        H  0.28294479  0.29017351  0.90606339     0.35000
C497        C  0.17301443  0.34589438  0.05993114    -0.26800
C498        C  0.14700516  0.33898709  0.04459919    -0.14800
C499        C  0.12440039  0.31116845  0.04776893     0.35800
C500        C  0.12978419  0.29083967  0.05797801    -0.26200
C501        C  0.15728909  0.29755576  0.06322465    -0.15500
C502        C  0.17860095  0.32535061  0.06785080     0.36900
N503        N  0.20657516  0.33292562  0.07569613    -0.89700
H504        H  0.19048886  0.36713205  0.05861732     0.18000
H505        H  0.11284163  0.26943903  0.05655592     0.18000
N506        N  0.09636965  0.30253619  0.03734460    -0.88700
H507        H  0.21986578  0.34500523  0.04853757     0.35400
H508        H  0.21266845  0.34504532  0.10444527     0.40500
H509        H  0.09483413  0.31931330  0.02946762     0.40100
H510        H  0.09153966  0.29038238  0.00879381     0.35000
C511        C  0.96956293  0.12115351  0.73919618    -0.26800
C512        C  0.96415423  0.14082636  0.72493141    -0.14800
C513        C  0.45987374  0.15620359  0.74805556     0.35800
C514        C  0.45692056  0.14967199  0.79374633    -0.26200
C515        C  0.96505502  0.13384605  0.81580248    -0.15500
C516        C  0.97152094  0.11857088  0.78527146     0.36900
N517        N  0.98373800  0.10400402  0.80057134    -0.89700
H518        H  0.97877458  0.11328792  0.71513402     0.18000
H519        H  0.44742002  0.15770770  0.81686767     0.18000
N520        N  0.44991376  0.17273740  0.73331684    -0.88700
H521        H  0.98823732  0.09470797  0.77359463     0.35400
H522        H  0.96857717  0.08805723  0.82177774     0.40500
H523        H  0.45940687  0.19107455  0.75149744     0.40100
H524        H  0.42836504  0.16239854  0.74127190     0.35000
C525        C  0.04758581  0.15217055  0.02801824    -0.26800
C526        C  0.04328168  0.14200404  0.98420288    -0.14800
C527        C  0.06352511  0.13765171  0.96235005     0.35800
C528        C  0.09095421  0.15268983  0.97649599    -0.26200
C529        C  0.09711973  0.16973018  0.01397795    -0.15500
C530        C  0.07483370  0.16679469  0.04285753     0.36900
N531        N  0.08009827  0.18111092  0.08457289    -0.89700
H532        H  0.03142110  0.15371146  0.04692695     0.18000
H533        H  0.10778861  0.15321496  0.95592284     0.18000
N534        N  0.05735234  0.12201837  0.92173453    -0.88700
H535        H  0.06826539  0.16660543  0.11012705     0.35400
H536        H  0.07302316  0.19458945  0.08348102     0.40500
H537        H  0.04176641  0.10164137  0.93016433     0.40100
H538        H  0.07487004  0.12173841  0.90891402     0.35000
C539        C  0.09531961  0.27210612  0.83400229    -0.26800
C540        C  0.09585572  0.25288813  0.86140649    -0.14800
C541        C  0.11930971  0.26189494  0.88724872     0.35800
C542        C  0.13991675  0.29004678  0.88908975    -0.26200
C543        C  0.13732281  0.30946601  0.86617670    -0.15500
C544        C  0.11580852  0.30033104  0.83645514     0.36900
N545        N  0.11390872  0.31986422  0.81058392    -0.89700
H546        H  0.07776224  0.26558212  0.81343857     0.18000
H547        H  0.15619329  0.29688496  0.91251714     0.18000
N548        N  0.12105615  0.24283984  0.91473230    -0.88700
H549        H  0.09446061  0.31751563  0.81893792     0.35400
H550        H  0.11451564  0.31508000  0.77668306     0.40500
H551        H  0.12279359  0.24943111  0.94800392     0.40100
H552        H  0.13907797  0.24295874  0.90411641     0.35000
C553        C  0.31961570  0.31654603  0.16038635    -0.26800
C554        C  0.34236107  0.31688538  0.17733070    -0.14800
C555        C  0.36160255  0.31512499  0.14728513     0.35800
C556        C  0.36144761  0.31918340  0.10130808    -0.26200
C557        C  0.34190106  0.32433139  0.08541973    -0.15500
C558        C  0.31933829  0.32059561  0.11424364     0.36900
N559        N  0.29866219  0.32493127  0.09764528    -0.89700
H560        H  0.30478391  0.31785781  0.18360737     0.18000
H561        H  0.37865125  0.32174860  0.07897944     0.18000
N562        N  0.38420919  0.31410085  0.16404860    -0.88700
H563        H  0.28413818  0.32260785  0.12360063     0.35400
H564        H  0.28749877  0.30939380  0.07463459     0.40500
H565        H  0.40307244  0.33194973  0.15329385     0.40100
H566        H  0.38402586  0.29723281  0.14962173     0.35000
C567        C  0.99124576  0.05217368  0.18774243    -0.26800
C568        C  0.98520082  0.03157436  0.15596047    -0.14800
C569        C  0.97444844  0.00448179  0.17119708     0.35800
C570        C  0.97585308  0.99985961  0.21674238    -0.26200
C571        C  0.98629381  0.02157430  0.24756793    -0.15500
C572        C  0.99185386  0.04747135  0.23331859     0.36900
N573        N  0.00040374  0.07006225  0.26337198    -0.89700
H574        H  0.99839177  0.07287781  0.17675974     0.18000
H575        H  0.97010750  0.97955162  0.22772124     0.18000
N576        N  0.48745562  0.97568891  0.13778958    -0.88700
H577        H  0.01912335  0.07495765  0.27679777     0.35400
H578        H  0.98478225  0.06407178  0.28928366     0.40500
H579        H  0.46864498  0.96730500  0.12183193     0.40100
H580        H  0.48643431  0.95940974  0.15449440     0.35000
C581        C  0.40776774  0.42172844  0.40540564    -0.26800
C582        C  0.41484464  0.40201552  0.39559944    -0.14800
C583        C  0.44010010  0.40669688  0.41030760     0.35800
C584        C  0.45938041  0.43224443  0.42809266    -0.26200
C585        C  0.44890326  0.95038106  0.43766677    -0.15500
C586        C  0.42351030  0.94580674  0.42360022     0.36900
N587        N  0.42209978  0.96844557  0.40845069    -0.89700
H588        H  0.38817450  0.41825368  0.39467313     0.18000
H589        H  0.97277637  0.43536059  0.44267579     0.18000
N590        N  0.44825845  0.38739451  0.40076445    -0.88700
H591        H  0.40550104  0.96816511  0.42653422     0.35400
H592        H  0.41794953  0.96565652  0.37448284     0.40500
H593        H  0.45336994  0.38286497  0.43097481     0.40100
H594        H  0.46642026  0.39689938  0.37923917     0.35000
C595        C  0.15831870  0.44444247  0.10032982    -0.26800
C596        C  0.14287405  0.42166100  0.07283181    -0.14800
C597        C  0.13335919  0.39502672  0.08908759     0.35800
C598        C  0.13738524  0.39161169  0.13355890    -0.26200
C599        C  0.14551732  0.41329503  0.16335223    -0.15500
C600        C  0.15956204  0.44038575  0.14622401     0.36900
N601        N  0.17033888  0.46308348  0.17670410    -0.89700
H602        H  0.16562598  0.46490131  0.08785435     0.18000
H603        H  0.12680333  0.37086828  0.14730329     0.18000
N604        N  0.11262920  0.37140092  0.06600264    -0.88700
H605        H  0.17891854  0.48166304  0.15908314     0.35400
H606        H  0.18683945  0.46395422  0.19220907     0.40500
H607        H  0.09340074  0.36920601  0.07547850     0.40100
H608        H  0.11093624  0.35382667  0.07889898     0.35000
C609        C  0.48914483  0.36227458  0.20511356    -0.26800
C610        C  0.51257182  0.38935124  0.20133940    -0.14800
C611        C  0.50822893  0.41137895  0.20051914     0.35800
C612        C  0.48098696  0.40613734  0.20783437    -0.26200
C613        C  0.45801239  0.37931541  0.21668303    -0.15500
C614        C  0.46199571  0.35709821  0.21302029     0.36900
N615        N  0.43866801  0.32928939  0.21863506    -0.89700
H616        H  0.49198141  0.34503886  0.20500313     0.18000
H617        H  0.47815790  0.42338319  0.20989288     0.18000
N618        N  0.53146885  0.43924020  0.19514710    -0.88700
H619        H  0.44220034  0.32029015  0.24529424     0.35400
H620        H  0.43807938  0.31854217  0.18949301     0.40500
H621        H  0.03281286  0.45199732  0.24347946     0.40100
H622        H  0.52843056  0.44787379  0.16740599     0.35000
C623        C  0.11402699  0.99537230  0.28978816    -0.26800
C624        C  0.10832185  0.47017720  0.33137931    -0.14800
C625        C  0.09243291  0.46539506  0.37238326     0.35800
C626        C  0.08080960  0.48122456  0.38281375    -0.26200
C627        C  0.08001088  0.99775720  0.34050298    -0.15500
C628        C  0.09719306  0.00599880  0.30010920     0.36900
N629        N  0.09728853  0.02418311  0.26806394    -0.89700
H630        H  0.12490892  0.99973017  0.25684190     0.18000
H631        H  0.06668410  0.47581803  0.41252603     0.18000
N632        N  0.08507081  0.44241902  0.40069299    -0.88700
H633        H  0.07778253  0.01453266  0.25419456     0.35400
H634        H  0.10115745  0.04208241  0.28449272     0.40500
H635        H  0.06326303  0.42926061  0.40248179     0.40100
H636        H  0.09108335  0.44969925  0.43304587     0.35000
C637        C  0.41894427  0.11659874  0.47355599    -0.26800
C638        C  0.39349582  0.10382730  0.49952163    -0.14800
C639        C  0.36844763  0.09568656  0.47938860     0.35800
C640        C  0.36893859  0.09755629  0.43253832    -0.26200
C641        C  0.39421987  0.10777888  0.40615719    -0.15500
C642        C  0.41967566  0.11918881  0.42717603     0.36900
N643        N  0.44605404  0.13215172  0.40114075    -0.89700
H644        H  0.43844152  0.12425806  0.48947738     0.18000
H645        H  0.34928239  0.08909716  0.41672333     0.18000
N646        N  0.34246558  0.08421413  0.50588295    -0.88700
H647        H  0.46274696  0.13903738  0.42192420     0.35400
H648        H  0.44880578  0.14962339  0.38581051     0.40500
H649        H  0.32860289  0.06438543  0.49433391     0.40100
H650        H  0.33403256  0.09620522  0.50047683     0.35000
C651        C  0.24037922  0.01636413  0.52352889    -0.26800
C652        C  0.22001043  0.01395339  0.55597740    -0.14800
C653        C  0.14700235  0.49860079  0.49012630     0.35800
C654        C  0.14768039  0.49102661  0.44547079    -0.26200
C655        C  0.20783770  0.00471696  0.46556731    -0.15500
C656        C  0.23476949  0.01288188  0.47811214     0.36900
N657        N  0.25706492  0.01999975  0.44468296    -0.89700
H658        H  0.26188693  0.02532851  0.53217217     0.18000
H659        H  0.13686986  0.49562783  0.42206505     0.18000
N660        N  0.13129453  0.51086343  0.50372818    -0.88700
H661        H  0.26518961  0.00774845  0.45014137     0.35400
H662        H  0.27295754  0.04054330  0.44925301     0.40500
H663        H  0.11019918  0.49651539  0.49855627     0.40100
H664        H  0.13796418  0.52786748  0.48275515     0.35000
C665        C  0.31332861  0.07455466  0.74101452    -0.26800
C666        C  0.30999413  0.09600333  0.72893343    -0.14800
C667        C  0.33160187  0.12348607  0.73672570     0.35800
C668        C  0.35820784  0.12896167  0.74547247    -0.26200
C669        C  0.36308535  0.10750359  0.74279797    -0.15500
C670        C  0.33995177  0.08037473  0.75004230     0.36900
N671        N  0.33623109  0.55612020  0.47037726    -0.89700
H672        H  0.28835419  0.55441593  0.49018422     0.18000
H673        H  0.37596112  0.15005060  0.74386726     0.18000
N674        N  0.32721904  0.14566611  0.73109185    -0.88700
H675        H  0.32539563  0.55882764  0.44608238     0.35400
H676        H  0.33673784  0.53870380  0.46103360     0.40500
H677        H  0.34542161  0.16457834  0.73724465     0.40100
H678        H  0.31187813  0.14312511  0.75559586     0.35000
C679        C  0.39292852  0.31769679  0.44269291    -0.26800
C680        C  0.41943837  0.32084322  0.43719066    -0.14800
C681        C  0.43468913  0.33033382  0.39541200     0.35800
C682        C  0.42043323  0.32985068  0.35815115    -0.26200
C683        C  0.39098528  0.31525697  0.36224289    -0.15500
C684        C  0.37850654  0.31517271  0.40478386     0.36900
N685        N  0.34947445  0.30633674  0.41042395    -0.89700
H686        H  0.38156140  0.31248733  0.47527054     0.18000
H687        H  0.43103854  0.33370104  0.32506904     0.18000
N688        N  0.46360152  0.33848040  0.39054472    -0.88700
H689        H  0.33736221  0.28679366  0.39663072     0.35400
H690        H  0.34653527  0.31984473  0.39240079     0.40500
H691        H  0.47490507  0.35543706  0.41112048     0.40100
H692        H  0.47168531  0.34513093  0.35761306     0.35000
C693        C  0.31957624  0.15022811  0.52332459    -0.26800
C694        C  0.30001374  0.14954259  0.55565092    -0.14800
C695        C  0.30294945  0.17460854  0.57003564     0.35800
C696        C  0.32681972  0.19964660  0.55496525    -0.26200
C697        C  0.34773376  0.20021363  0.52599681    -0.15500
C698        C  0.34348229  0.17525838  0.50868657     0.36900
N699        N  0.36435398  0.17499656  0.47902853    -0.89700
H700        H  0.31744229  0.13118868  0.51178134     0.18000
H701        H  0.32987410  0.21879681  0.56797416     0.18000
N702        N  0.28295251  0.17469328  0.60242980    -0.88700
H703        H  0.35494506  0.16494429  0.44967128     0.35400
H704        H  0.37106148  0.16349928  0.49432583     0.40500
H705        H  0.26402473  0.16634628  0.58698930     0.40100
H706        H  0.28908166  0.19482048  0.61116768     0.35000
C707        C  0.46530356  0.18845033  0.53992888    -0.26800
C708        C  0.45685886  0.18619122  0.58598341    -0.14800
C709        C  0.45595001  0.20819588  0.60633728     0.35800
C710        C  0.46402627  0.23167555  0.58151826    -0.26200
C711        C  0.46787446  0.23208861  0.53479453    -0.15500
C712        C  0.46956516  0.21075269  0.51362507     0.36900
N713        N  0.47412695  0.21115976  0.46569630    -0.89700
H714        H  0.46537057  0.17142726  0.52359137     0.18000
H715        H  0.46239197  0.24775789  0.59809840     0.18000
N716        N  0.44514800  0.20677167  0.65156293    -0.88700
H717        H  0.47459126  0.19386680  0.45527135     0.35400
H718        H  0.49401064  0.22837483  0.45721021     0.40500
H719        H  0.45629780  0.20227097  0.67219978     0.40100
H720        H  0.42385344  0.19149255  0.65478224     0.35000
In721      In  0.40302006  0.75832759  0.53012026     1.36900
C722        C  0.42204180  0.72470284  0.52448135     0.77100
O723        O  0.44014507  0.79028064  0.56515355    -0.61300
O724        O  0.40358492  0.76106601  0.60474739    -0.52200
C725        C  0.40862143  0.79803515  0.47966487     0.69800
O726        O  0.42169609  0.78604611  0.47017350    -0.47100
C727        C  0.34933623  0.72214451  0.51980228     0.74500
O728        O  0.42946482  0.74299428  0.49450871    -0.58900
O729        O  0.35788037  0.73749480  0.55367952    -0.49000
O730        O  0.40484553  0.72365891  0.55455121    -0.55400
C731        C  0.42914481  0.77999381  0.60346564     0.84700
O732        O  0.39427721  0.79097098  0.51665897    -0.57300
O733        O  0.36835945  0.72659457  0.49019788    -0.60600
In734      In  0.22321968  0.56764948  0.57906263     1.36900
C735        C  0.25306822  0.61835491  0.54719522     0.77100
O736        O  0.19180260  0.57524561  0.61210489    -0.61300
O737        O  0.22511688  0.58094561  0.65042414    -0.52200
C738        C  0.18150920  0.52290864  0.54682186     0.69800
O739        O  0.19196548  0.52226928  0.58251741    -0.47100
C740        C  0.25994922  0.55235839  0.56778092     0.74500
O741        O  0.25634115  0.61134504  0.58471830    -0.58900
O742        O  0.25399640  0.56234001  0.53645132    -0.49000
O743        O  0.23487482  0.59898305  0.52415517    -0.55400
C744        C  0.20496104  0.58434114  0.64726578     0.84700
O745        O  0.19005116  0.54664604  0.53152228    -0.57300
O746        O  0.24685996  0.55017519  0.60511162    -0.60600
In747      In  0.41731211  0.57970636  0.55255186     1.36900
C748        C  0.36264605  0.55730442  0.55147592     0.77100
O749        O  0.41344633  0.54306302  0.58370962    -0.61300
O750        O  0.41465154  0.57370146  0.62718753    -0.52200
C751        C  0.45164684  0.57663460  0.49264989     0.69800
O752        O  0.42526884  0.56068013  0.49334334    -0.47100
C753        C  0.43190388  0.63110944  0.53682831     0.74500
O754        O  0.37672574  0.55536958  0.51844573    -0.58900
O755        O  0.44044257  0.62473186  0.56987542    -0.49000
O756        O  0.37660950  0.57028982  0.58437790    -0.55400
C757        C  0.40919376  0.54939167  0.62282726     0.84700
O758        O  0.46086683  0.59271935  0.52567949    -0.57300
O759        O  0.41707006  0.61137616  0.51153926    -0.60600
In760      In  0.09297938  0.90579125  0.25728837     1.36900
C761        C  0.55620348  0.91050253  0.20956878     0.77100
O762        O  0.08917115  0.86923949  0.29087554    -0.61300
O763        O  0.06465720  0.88520656  0.31714313    -0.52200
C764        C  0.12562617  0.90561448  0.19032865     0.69800
O765        O  0.09927922  0.89059670  0.19224643    -0.47100
C766        C  0.11444545  0.95323634  0.29605536     0.74500
O767        O  0.05043082  0.87951625  0.23019996    -0.58900
O768        O  0.11330002  0.95066788  0.25400368    -0.49000
O769        O  0.06696269  0.92212238  0.23575517    -0.55400
C770        C  0.06942674  0.86625173  0.31777592     0.84700
O771        O  0.13597828  0.91895968  0.22545847    -0.57300
O772        O  0.11019662  0.93239844  0.31718143    -0.60600
In773      In  0.02180480  0.51784646  0.35741823     1.36900
C774        C  0.06167768  0.50711881  0.35391396     0.77100
O775        O  0.05382976  0.56258587  0.34606152    -0.61300
O776        O  0.04400779  0.54639107  0.41280010    -0.52200
C777        C  0.00173910  0.51585829  0.27878199     0.69800
O778        O  0.01220003  0.50200029  0.28793896    -0.47100
C779        C  0.97673906  0.47825863  0.40208009     0.74500
O780        O  0.05606793  0.51594759  0.32061053    -0.58900
O781        O  0.98244721  0.50278750  0.40319231    -0.49000
O782        O  0.04582072  0.50259983  0.38869104    -0.55400
C783        C  0.06159831  0.56479543  0.38531834     0.84700
O784        O  0.00021574  0.52979340  0.31113233    -0.57300
O785        O  0.99422218  0.47485385  0.37930557    -0.60600
In786      In  0.39719933  0.87592200  0.29055863     1.36900
C787        C  0.40108790  0.88162834  0.37843451     0.77100
O788        O  0.40302915  0.91760071  0.28641316    -0.61300
O789        O  0.36169081  0.88149809  0.29512367    -0.52200
C790        C  0.36896593  0.84118169  0.22791471     0.69800
O791        O  0.38225352  0.86697999  0.22352719    -0.47100
C792        C  0.44559510  0.88601093  0.25476283     0.74500
O793        O  0.42175329  0.88808837  0.35133107    -0.58900
O794        O  0.42783571  0.86345263  0.27457864    -0.49000
O795        O  0.37751001  0.86682885  0.36201905    -0.55400
C796        C  0.37691204  0.90738156  0.29378326     0.84700
O797        O  0.36886754  0.83209161  0.26640619    -0.57300
O798        O  0.43856628  0.90363349  0.25433720    -0.60600
In799      In  0.00829861  0.70364778  0.85425354     1.36900
C800        C  0.04422401  0.75267152  0.81681315     0.77100
O801        O  0.02389719  0.72603057  0.91821760    -0.61300
O802        O  0.98138454  0.71021485  0.90482151    -0.52200
C803        C  0.96669533  0.66678784  0.80582969     0.69800
O804        O  0.97191750  0.66050742  0.84232393    -0.47100
C805        C  0.03715172  0.68115255  0.87117956     0.74500
O806        O  0.02052466  0.74637462  0.83420580    -0.58900
O807        O  0.01779274  0.67886344  0.89823264    -0.49000
O808        O  0.04740907  0.73258644  0.81239714    -0.55400
C809        C  0.50761935  0.71485955  0.93467547     0.84700
O810        O  0.98063955  0.69221202  0.79694814    -0.57300
O811        O  0.03981969  0.69294152  0.83443524    -0.60600
In812      In  0.18176421  0.74183077  0.97694176     1.36900
C813        C  0.13486446  0.70420345  0.93943357     0.77100
O814        O  0.19406489  0.71106022  0.97908914    -0.61300
O815        O  0.18897499  0.72762738  0.04086878    -0.52200
C816        C  0.21783181  0.77499523  0.91269758     0.69800
O817        O  0.19266314  0.76851048  0.91725899    -0.47100
C818        C  0.16902829  0.77421213  0.02265935     0.74500
O819        O  0.15827137  0.71642448  0.91736970    -0.58900
O820        O  0.19426183  0.78171897  0.01258045    -0.49000
O821        O  0.13610752  0.71063981  0.98012062    -0.55400
C822        C  0.19212867  0.70971596  0.02120965     0.84700
O823        O  0.22524082  0.76583746  0.94332310    -0.57300
O824        O  0.15136927  0.74961746  0.01349102    -0.60600
In825      In  0.17397409  0.88765237  0.91875298     1.36900
C826        C  0.15324616  0.85229282  0.98412352     0.77100
O827        O  0.21455218  0.89021966  0.92320931    -0.61300
O828        O  0.20546275  0.91579690  0.96566553    -0.52200
C829        C  0.18577495  0.92998048  0.87175463     0.69800
O830        O  0.19853126  0.91738506  0.86554398    -0.47100
C831        C  0.13647523  0.85433409  0.86280770     0.74500
O832        O  0.16190217  0.84814397  0.94645587    -0.58900
O833        O  0.13165309  0.86764979  0.89276305    -0.49000
O834        O  0.15265797  0.87415899  0.98755987    -0.55400
C835        C  0.22174687  0.90737877  0.95511054     0.84700
O836        O  0.16820177  0.92239246  0.90564344    -0.57300
O837        O  0.16124342  0.85897353  0.86068950    -0.60600
In838      In  0.28931428  0.93115074  0.03047908     1.36900
C839        C  0.30581040  0.89473056  0.01953427     0.77100
O840        O  0.26386033  0.94075354  0.98882720    -0.61300
O841        O  0.25068780  0.89876316  0.99753132    -0.52200
C842        C  0.27225738  0.94559625  0.10866556     0.69800
O843        O  0.26658462  0.92133203  0.10169056    -0.47100
C844        C  0.33946650  0.96964407  0.99427092     0.74500
O845        O  0.30933822  0.90862448  0.05490289    -0.58900
O846        O  0.31711201  0.96263056  0.97611470    -0.49000
O847        O  0.29070853  0.89668949  0.99256404    -0.55400
C848        C  0.24633212  0.91589191  0.98039024     0.84700
O849        O  0.28661079  0.96186641  0.07659093    -0.57300
O850        O  0.33593504  0.95941160  0.03269932    -0.60600
In851      In  0.26205047  0.97606902  0.23266559     1.36900
C852        C  0.27994628  0.95347270  0.28864455     0.77100
O853        O  0.25019210  0.93994477  0.18454439    -0.61300
O854        O  0.27441178  0.98058230  0.15811735    -0.52200
C855        C  0.24267098  0.50072508  0.25050291     0.69800
O856        O  0.21929810  0.96397532  0.26980811    -0.47100
C857        C  0.33227084  0.52373758  0.23243848     0.74500
O858        O  0.26850144  0.94181778  0.25309507    -0.58900
O859        O  0.32484315  0.50461517  0.20459198    -0.49000
O860        O  0.27841138  0.97400634  0.29851300    -0.55400
C861        C  0.26480674  0.95532915  0.15124219     0.84700
O862        O  0.26714585  0.51598024  0.23325662    -0.57300
O863        O  0.31235550  0.52299846  0.25508144    -0.60600
In864      In  0.20398901  0.53575045  0.32305938     1.36900
C865        C  0.17660863  0.55804967  0.36411579     0.77100
O866        O  0.18089609  0.99829750  0.40185183    -0.61300
O867        O  0.20810144  0.51993382  0.38597094    -0.52200
C868        C  0.20996289  0.00021822  0.28829884     0.69800
O869        O  0.18444846  0.99044643  0.30228466    -0.47100
C870        C  0.22978764  0.58244703  0.28175760     0.74500
O871        O  0.16831128  0.54321661  0.32904910    -0.58900
O872        O  0.24051892  0.57801109  0.31420339    -0.49000
O873        O  0.19845581  0.56057871  0.37920682    -0.55400
C874        C  0.18268358  0.49973103  0.38680356     0.84700
O875        O  0.24028938  0.53180940  0.30273569    -0.57300
O876        O  0.20768048  0.56172025  0.26701412    -0.60600
In877      In  0.49275469  0.76601088  0.01437560     1.36900
C878        C  0.03623064  0.82568836  0.01238983     0.77100
O879        O  0.02037954  0.75820054  0.98734796    -0.61300
O880        O  0.97640070  0.73809145  0.97924590    -0.52200
C881        C  0.47901261  0.73762221  0.09324516     0.69800
O882        O  0.50383451  0.75578408  0.08022777    -0.47100
C883        C  0.45710625  0.77668444  0.98082231     0.74500
O884        O  0.02058474  0.81714143  0.04810444    -0.58900
O885        O  0.46414663  0.76130257  0.96150458    -0.49000
O886        O  0.03358370  0.80668361  0.98688648    -0.55400
C887        C  0.99925168  0.74018801  0.96720062     0.84700
O888        O  0.46102120  0.73469063  0.06698628    -0.57300
O889        O  0.46446596  0.78285695  0.02058556    -0.60600
In890      In  0.45801645  0.70253601  0.22202106     1.36900
C891        C  0.42230296  0.71835470  0.24088547     0.77100
O892        O  0.46484483  0.71521146  0.29488671    -0.61300
O893        O  0.50076267  0.73282626  0.25045090    -0.52200
C894        C  0.43931714  0.64838551  0.23339671     0.69800
O895        O  0.42425454  0.65835686  0.23828228    -0.47100
C896        C  0.47161942  0.72222417  0.13658669     0.74500
O897        O  0.41663143  0.69460880  0.25040463    -0.58900
O898        O  0.48966937  0.72576746  0.16328869    -0.49000
O899        O  0.44554460  0.73352762  0.21960684    -0.55400
C900        C  0.49057958  0.73283389  0.28932859     0.84700
O901        O  0.46417823  0.66565402  0.21872706    -0.57300
O902        O  0.44665169  0.70569515  0.15138653    -0.60600
In903      In  0.40882530  0.56906429  0.27917191     1.36900
C904        C  0.36130880  0.54338889  0.24297176     0.77100
O905        O  0.41066992  0.60873193  0.28098893    -0.61300
O906        O  0.43631105  0.60422441  0.22941224    -0.52200
C907        C  0.45028045  0.58143440  0.32616817     0.69800
O908        O  0.43127296  0.58610011  0.33929396    -0.47100
C909        C  0.38484715  0.52116279  0.32204798     0.74500
O910        O  0.36602922  0.55880719  0.27684351    -0.58900
O911        O  0.39942278  0.52625714  0.28486527    -0.49000
O912        O  0.38246205  0.54394696  0.22333551    -0.55400
C913        C  0.42856558  0.61960555  0.24779918     0.84700
O914        O  0.44963311  0.57284391  0.28611024    -0.57300
O915        O  0.38344751  0.54121719  0.33836172    -0.60600
In916      In  0.16949648  0.63731961  0.07877038     1.36900
C917        C  0.11321139  0.61272309  0.06826608     0.77100
O918        O  0.17777578  0.67975336  0.08416232    -0.61300
O919        O  0.19173659  0.66834732  0.02399722    -0.52200
C920        C  0.20306011  0.64962054  0.14817508     0.69800
O921        O  0.18010128  0.64868417  0.15218556    -0.47100
C922        C  0.16954718  0.59991644  0.02626430     0.74500
O923        O  0.12291032  0.60577441  0.09881268    -0.58900
O924        O  0.18645193  0.62531392  0.01833874    -0.49000
O925        O  0.13174568  0.63427152  0.04750182    -0.55400
C926        C  0.18855856  0.68609105  0.04448881     0.84700
O927        O  0.20787768  0.64274146  0.10992037    -0.57300
O928        O  0.15613447  0.59399656  0.06408057    -0.60600
In929      In  0.24863549  0.66104874  0.25939360     1.36900
C930        C  0.21219788  0.65545166  0.32554112     0.77100
O931        O  0.22124513  0.66988648  0.21989926    -0.61300
O932        O  0.23998749  0.65006988  0.18613207    -0.52200
C933        C  0.30259295  0.70250255  0.27303500     0.69800
O934        O  0.29431741  0.69384165  0.23423697    -0.47100
C935        C  0.23940610  0.61043559  0.26751860     0.74500
O936        O  0.22867009  0.64720918  0.32772757    -0.58900
O937        O  0.22460216  0.61553082  0.24539089    -0.49000
O938        O  0.21601105  0.66943439  0.29090853    -0.55400
C939        C  0.22221638  0.65711268  0.18534207     0.84700
O940        O  0.28304670  0.69205906  0.30311418    -0.57300
O941        O  0.26069742  0.63143683  0.28180887    -0.60600
In942      In  0.38630796  0.75451550  0.30361449     1.36900
C943        C  0.40532627  0.72889394  0.25874323     0.77100
O944        O  0.34125434  0.72149585  0.32186672    -0.61300
O945        O  0.35140582  0.73908151  0.25564350    -0.52200
C946        C  0.38447157  0.79518166  0.33634757     0.69800
O947        O  0.37388506  0.77234381  0.35712004    -0.47100
C948        C  0.43570365  0.77550130  0.34154829     0.74500
O949        O  0.39032146  0.71900476  0.29516402    -0.58900
O950        O  0.43255056  0.78546841  0.30657921    -0.49000
O951        O  0.40748167  0.75031801  0.24238282    -0.55400
C952        C  0.33252344  0.72175762  0.28369361     0.84700
O953        O  0.39283121  0.79600587  0.29531485    -0.57300
O954        O  0.41288850  0.75523120  0.35941226    -0.60600
In955      In  0.01469249  0.79513663  0.38654210     1.36900
C956        C  0.46449402  0.78581498  0.35677240     0.77100
O957        O  0.02986955  0.83821064  0.36757232    -0.61300
O958        O  0.05370731  0.82102696  0.34302499    -0.52200
C959        C  0.04388017  0.80975924  0.46202308     0.69800
O960        O  0.02504450  0.81483152  0.45651686    -0.47100
C961        C  0.00562929  0.75361279  0.33468161     0.74500
O962        O  0.46975991  0.77586818  0.38930613    -0.58900
O963        O  0.02474058  0.77810980  0.32515912    -0.49000
O964        O  0.48632561  0.80459361  0.33554887    -0.55400
C965        C  0.05104335  0.84146576  0.34441249     0.84700
O966        O  0.04476170  0.79409259  0.43251032    -0.57300
O967        O  0.49543100  0.75305089  0.36239604    -0.60600
In968      In  0.09439400  0.83466077  0.57283929     1.36900
C969        C  0.06151058  0.83485234  0.64048835     0.77100
O970        O  0.06190812  0.83528683  0.53105148    -0.61300
O971        O  0.08342104  0.81723876  0.50219878    -0.52200
C972        C  0.14921572  0.87387267  0.58271531     0.69800
O973        O  0.13186066  0.88028802  0.57371961    -0.47100
C974        C  0.08084578  0.78398811  0.59112071     0.74500
O975        O  0.07856272  0.82755913  0.64511769    -0.58900
O976        O  0.08260523  0.79185909  0.55140492    -0.49000
O977        O  0.06368997  0.84545732  0.60279106    -0.55400
C978        C  0.06357449  0.82119335  0.49922785     0.84700
O979        O  0.13970402  0.84865564  0.57877497    -0.57300
O980        O  0.08794607  0.80234887  0.62031812    -0.60600
In981      In  0.22447356  0.92290600  0.64322559     1.36900
C982        C  0.25004841  0.90402482  0.59588462     0.77100
O983        O  0.18428984  0.88359489  0.63358600    -0.61300
O984        O  0.19375481  0.91786198  0.59194227    -0.52200
C985        C  0.20616655  0.94297040  0.70423578     0.69800
O986        O  0.20208724  0.91899731  0.70730664    -0.47100
C987        C  0.27309555  0.94917163  0.68197262     0.74500
O988        O  0.23377370  0.89094398  0.62998091    -0.58900
O989        O  0.26786927  0.95956461  0.64958301    -0.49000
O990        O  0.25101088  0.92567310  0.58349955    -0.55400
C991        C  0.17667384  0.89253918  0.60261881     0.84700
O992        O  0.21819696  0.95629411  0.66769491    -0.57300
O993        O  0.25270475  0.92568875  0.69613408    -0.60600
In994      In  0.34114133  0.94807269  0.34555291     1.36900
C995        C  0.37365048  0.00175585  0.32409485     0.77100
O996        O  0.37910404  0.94782070  0.32001342    -0.61300
O997        O  0.33854917  0.91292563  0.30862005    -0.52200
C998        C  0.33006898  0.92127896  0.42604079     0.69800
O999        O  0.35317498  0.94313432  0.41536520    -0.47100
C1000       C  0.29784545  0.94715101  0.31269139     0.74500
O1001       O  0.36458238  0.99319166  0.36413572    -0.58900
O1002       O  0.30797953  0.93383664  0.29507258    -0.49000
O1003       O  0.36845381  0.98301747  0.29620071    -0.55400
C1004       C  0.36474452  0.92357039  0.30596140     0.84700
O1005       O  0.31220965  0.91433161  0.39719475    -0.57300
O1006       O  0.30761479  0.95814992  0.34964204    -0.67800
In1007     In  0.30961579  0.88652693  0.55537707     1.36900
C1008       C  0.26927991  0.89644314  0.57629156     0.77100
O1009       O  0.31506356  0.89856596  0.62793317    -0.61300
O1010       O  0.34907895  0.92385354  0.58183352    -0.52200
C1011       C  0.29561381  0.83458391  0.57664138     0.69800
O1012       O  0.28066119  0.84024671  0.55560609    -0.47100
C1013       C  0.32368165  0.90584960  0.46941654     0.74500
O1014       O  0.26641533  0.87364047  0.58414067    -0.58900
O1015       O  0.34188596  0.91030473  0.49661689    -0.49000
O1016       O  0.29183273  0.91346227  0.55507310    -0.55400
C1017       C  0.33859753  0.92044194  0.62162057     0.84700
O1018       O  0.32039178  0.85501348  0.57973813    -0.57300
O1019       O  0.29897522  0.88808587  0.48362554    -0.60600
In1020     In  0.25283446  0.76337698  0.65836846     1.36900
C1021       C  0.20693050  0.73434201  0.61758203     0.77100
O1022       O  0.25623952  0.79340375  0.60835532    -0.61300
O1023       O  0.29484938  0.79806603  0.62158121    -0.52200
C1024       C  0.25629137  0.78861475  0.73408772     0.69800
O1025       O  0.23569258  0.77948173  0.70977074    -0.47100
C1026       C  0.24115925  0.71491095  0.69543076     0.74500
O1027       O  0.20967996  0.75162357  0.64719694    -0.58900
O1028       O  0.25743834  0.72521985  0.66002978    -0.49000
O1029       O  0.22863785  0.73384497  0.60587933    -0.55400
C1030       C  0.28246114  0.80764371  0.60166501     0.84700
O1031       O  0.27653223  0.78680990  0.71751075    -0.57300
O1032       O  0.23421559  0.73068246  0.71315370    -0.60600
In1033     In  0.14530944  0.60804580  0.40742387     1.36900
C1034       C  0.16315030  0.57311612  0.38340981     0.77100
O1035       O  0.10090942  0.57594300  0.42581888    -0.61300
O1036       O  0.10925668  0.60193105  0.36940505    -0.52200
C1037       C  0.13960356  0.63241720  0.48135770     0.69800
O1038       O  0.13753080  0.60934909  0.48264300    -0.47100
C1039       C  0.18826081  0.64506253  0.35799967     0.74500
O1040       O  0.16935959  0.58648120  0.41976578    -0.58900
O1041       O  0.16355315  0.63533882  0.34621470    -0.49000
O1042       O  0.14570997  0.57533607  0.36271518    -0.55400
C1043       C  0.09115266  0.58229220  0.39482066     0.84700
O1044       O  0.14710879  0.64396782  0.44320684    -0.57300
O1045       O  0.19028346  0.63955357  0.39769124    -0.60600
In1046     In  0.12933403  0.66908015  0.59650368     1.36900
C1047       C  0.13686613  0.64619813  0.66618907     0.77100
O1048       O  0.12016628  0.63146674  0.55630210    -0.61300
O1049       O  0.14212152  0.67021738  0.52266670    -0.52200
C1050       C  0.08681725  0.67782727  0.60674431     0.69800
O1051       O  0.08936699  0.66230742  0.63228455    -0.47100
C1052       C  0.17960555  0.71356394  0.60314173     0.74500
O1053       O  0.12462832  0.63257264  0.63223772    -0.58900
O1054       O  0.17574014  0.69254758  0.58280518    -0.49000
O1055       O  0.14155031  0.67020141  0.66736497    -0.55400
C1056       C  0.13369952  0.64496012  0.52101833     0.84700
O1057       O  0.10367636  0.68598697  0.57250059    -0.57300
O1058       O  0.15768198  0.71310091  0.61594785    -0.60600
In1059     In  0.03549840  0.70769719  0.64027526     1.36900
C1060       C  0.50241833  0.73458428  0.67099443     0.77100
O1061       O  0.99398758  0.67192083  0.62334038    -0.61300
O1062       O  0.01121483  0.67349320  0.68686385    -0.52200
C1063       C  0.06768690  0.68769678  0.61841212     0.69800
O1064       O  0.05456185  0.69151922  0.58942786    -0.47100
C1065       C  0.06802486  0.75537357  0.60437072     0.74500
O1066       O  0.49562365  0.72197183  0.63378556    -0.58900
O1067       O  0.07212143  0.74934808  0.64261421    -0.49000
O1068       O  0.52029238  0.73235674  0.69135645    -0.55400
C1069       C  0.99039682  0.66151837  0.66230677     0.84700
O1070       O  0.06427687  0.69416124  0.65842640    -0.57300
O1071       O  0.04924593  0.73570464  0.58184192    -0.60600
In1072     In  0.18818211  0.63132405  0.73203466     1.36900
C1073       C  0.22727887  0.68566907  0.71240165     0.77100
O1074       O  0.21507615  0.61477260  0.70935586    -0.61300
O1075       O  0.17791121  0.60223518  0.67589408    -0.52200
C1076       C  0.17090474  0.59891725  0.80751936     0.69800
O1077       O  0.19636848  0.61729239  0.79834507    -0.47100
C1078       C  0.14986839  0.63717661  0.69658996     0.74500
O1079       O  0.21232758  0.67733689  0.74900488    -0.58900
O1080       O  0.15359578  0.61794317  0.68598986    -0.49000
O1081       O  0.22548803  0.66621973  0.68910137    -0.55400
C1082       C  0.19889287  0.60030353  0.67917211     0.84700
O1083       O  0.15462900  0.59945105  0.78138013    -0.57300
O1084       O  0.16248145  0.65083925  0.73036796    -0.60600
In1085     In  0.13793786  0.54727696  0.92122130     1.36900
C1086       C  0.09015093  0.54536658  0.94017889     0.77100
O1087       O  0.13715967  0.55800304  0.99320972    -0.61300
O1088       O  0.17537730  0.58280594  0.95443612    -0.52200
C1089       C  0.11349475  0.98931922  0.93651494     0.69800
O1090       O  0.10758504  0.99798495  0.90323732    -0.47100
C1091       C  0.16028466  0.57848050  0.84543834     0.74500
O1092       O  0.09131895  0.52413313  0.94140928    -0.58900
O1093       O  0.17546463  0.57807214  0.87438918    -0.49000
O1094       O  0.11226348  0.56645612  0.92488418    -0.55400
C1095       C  0.16136433  0.57924628  0.99118987     0.84700
O1096       O  0.14347772  0.51669700  0.95806376    -0.57300
O1097       O  0.13455044  0.56021557  0.85211779    -0.60600
In1098     In  0.07800057  0.90729538  0.97310142     1.36900
C1099       C  0.02921220  0.88699282  0.94186738     0.77100
O1100       O  0.08793384  0.94984422  0.98531469    -0.61300
O1101       O  0.10216554  0.94223208  0.92130408    -0.52200
C1102       C  0.11745612  0.91657213  0.02333886     0.69800
O1103       O  0.09861083  0.92155213  0.03581765    -0.47100
C1104       C  0.05353036  0.85534803  0.99959262     0.74500
O1105       O  0.03438743  0.89699856  0.98117679    -0.58900
O1106       O  0.06953673  0.86443209  0.96357516    -0.49000
O1107       O  0.05009827  0.89050427  0.91677379    -0.55400
C1108       C  0.10106524  0.95963080  0.94750164     0.84700
O1109       O  0.11760273  0.90896642  0.98278253    -0.57300
O1110       O  0.05147019  0.87328828  0.02257225    -0.60600
In1111     In  0.35613345  0.98128735  0.71177609     1.36900
C1112       C  0.30186941  0.96242728  0.69819023     0.77100
O1113       O  0.37804593  0.52947683  0.68820096    -0.61300
O1114       O  0.39249414  0.50552161  0.65527911    -0.52200
C1115       C  0.38236614  0.99091507  0.78974770     0.69800
O1116       O  0.36234083  0.99435571  0.78538714    -0.47100
C1117       C  0.34991739  0.94169618  0.65647121     0.74500
O1118       O  0.30861540  0.95327517  0.72999384    -0.58900
O1119       O  0.36789232  0.96677708  0.64774147    -0.49000
O1120       O  0.32247013  0.98279717  0.67777786    -0.55400
C1121       C  0.39394299  0.52818418  0.65765753     0.84700
O1122       O  0.38773658  0.98084625  0.75546369    -0.57300
O1123       O  0.33890657  0.93686530  0.69602588    -0.60600
In1124     In  0.41168475  0.99586941  0.91578070     1.36900
C1125       C  0.36709833  0.98426706  0.96999127     0.77100
O1126       O  0.40253793  0.52119810  0.85823982    -0.61300
O1127       O  0.41130163  0.98648928  0.84113258    -0.52200
C1128       C  0.46795417  0.54113249  0.94196164     0.69800
O1129       O  0.44861187  0.54600482  0.94656121    -0.47100
C1130       C  0.39842647  0.94463705  0.92975151     0.74500
O1131       O  0.38661888  0.98190876  0.98179644    -0.58900
O1132       O  0.39090461  0.95109221  0.89599642    -0.49000
O1133       O  0.37210537  0.99646663  0.93291769    -0.55400
C1134       C  0.39712811  0.99675909  0.83214601     0.84700
O1135       O  0.46267600  0.52186090  0.91516440    -0.57300
O1136       O  0.41457433  0.96452378  0.95350165    -0.60600
In1137     In  0.03550166  0.55729614  0.01538990     1.36900
C1138       C  0.06723025  0.54717583  0.96157535     0.77100
O1139       O  0.00383868  0.53131100  0.96568040    -0.61300
O1140       O  0.00626266  0.56846053  0.98373072    -0.52200
C1141       C  0.00640775  0.53449677  0.09193907     0.69800
O1142       O  0.01471723  0.52244679  0.06516008    -0.47100
C1143       C  0.08384388  0.59487897  0.05344816     0.74500
O1144       O  0.04905913  0.52913901  0.98934417    -0.58900
O1145       O  0.07289384  0.60186896  0.02477762    -0.49000
O1146       O  0.06684205  0.56889055  0.95831317    -0.55400
C1147       C  0.99403914  0.54629742  0.96137272     0.84700
O1148       O  0.01086947  0.55709307  0.07720855    -0.57300
O1149       O  0.06884758  0.56985351  0.06489776    -0.60600
In1150     In  0.48237085  0.79374929  0.69994363     1.36900
C1151       C  0.49234114  0.75285303  0.68643020     0.77100
O1152       O  0.43977045  0.76927157  0.67286900    -0.61300
O1153       O  0.47000935  0.80826270  0.64280473    -0.52200
C1154       C  0.46421007  0.80615285  0.77707017     0.69800
O1155       O  0.45613711  0.78181005  0.76612287    -0.47100
C1156       C  0.03724938  0.82544818  0.67202100     0.74500
O1157       O  0.50198675  0.76932941  0.71871405    -0.58900
O1158       O  0.01451556  0.82093161  0.65882307    -0.49000
O1159       O  0.47530845  0.75533178  0.66515330    -0.55400
C1160       C  0.44612722  0.78654777  0.64177507     0.84700
O1161       O  0.48226872  0.82410849  0.74965298    -0.57300
O1162       O  0.03563068  0.81577951  0.71044927    -0.60600
In1163     In  0.44488143  0.82638315  0.90201717     1.36900
C1164       C  0.44653752  0.79062170  0.95563299     0.77100
O1165       O  0.43664154  0.79537044  0.84729217    -0.61300
O1166       O  0.46481328  0.83780365  0.83167293    -0.52200
C1167       C  0.40501758  0.83906557  0.91492451     0.69800
O1168       O  0.43067719  0.85611274  0.90662084    -0.47100
C1169       C  0.49598053  0.86666106  0.92349055     0.74500
O1170       O  0.44247387  0.78651747  0.91450636    -0.58900
O1171       O  0.99449054  0.86014414  0.88949439    -0.49000
O1172       O  0.44573843  0.81087333  0.97083318    -0.55400
C1173       C  0.45454441  0.81323143  0.81932508     0.84700
O1174       O  0.39838541  0.81437365  0.91191618    -0.57300
O1175       O  0.47576370  0.85385707  0.95224283    -0.60600
In1176     In  0.35884040  0.86756748  0.98073789     1.36900
C1177       C  0.32166157  0.88109537  0.00789435     0.77100
O1178       O  0.33446241  0.82996371  0.02454333    -0.61300
O1179       O  0.37431182  0.86390964  0.04400928    -0.52200
C1180       C  0.38666617  0.84850104  0.93406408     0.69800
O1181       O  0.36003759  0.83611010  0.93239042    -0.47100
C1182       C  0.38646642  0.91633876  0.94444252     0.74500
O1183       O  0.31806527  0.86618040  0.97326598    -0.58900
O1184       O  0.39284120  0.91109500  0.98123553    -0.49000
O1185       O  0.34242617  0.88647612  0.02972738    -0.55400
C1186       C  0.35293885  0.84021148  0.05334638     0.84700
O1187       O  0.39774549  0.87026654  0.95673495    -0.57300
O1188       O  0.36710735  0.89593144  0.92424979    -0.60600
C1189       C  0.17203266  0.94097787  0.76143225    -0.26800
C1190       C  0.19986289  0.95484856  0.74366442    -0.14800
C1191       C  0.22170972  0.97048098  0.77227403     0.35800
C1192       C  0.21579503  0.96753723  0.81885970    -0.26200
C1193       C  0.18850381  0.94859482  0.83645256    -0.15500
C1194       C  0.16616053  0.93777460  0.80802215     0.36900
N1195       N  0.13796158  0.91935176  0.82575210    -0.89700
H1196       H  0.15511414  0.92899067  0.73948371     0.18000
H1197       H  0.23310376  0.97611322  0.84062573     0.18000
N1198       N  0.25025785  0.98569614  0.75437328    -0.88700
H1199       H  0.13046743  0.90005938  0.81121390     0.35400
H1200       H  0.12568115  0.92670789  0.81594493     0.40500
H1201       H  0.26082612  0.97731222  0.76769787     0.40100
H1202       H  0.25946229  0.00594964  0.76547088     0.35000
C1203       C  0.22461288  0.79864966  0.84079519    -0.26800
C1204       C  0.23551655  0.78931783  0.87169075    -0.14800
C1205       C  0.25944763  0.78833120  0.85843242     0.35800
C1206       C  0.26872042  0.79196656  0.81279701    -0.26200
C1207       C  0.25454828  0.79665182  0.78083859    -0.15500
C1208       C  0.23383896  0.80218536  0.79544993     0.36900
N1209       N  0.22079183  0.80954690  0.76393438    -0.89700
H1210       H  0.20701690  0.80069420  0.85090257     0.18000
H1211       H  0.28514236  0.78833999  0.80175272     0.18000
N1212       N  0.27272573  0.78139829  0.89036833    -0.88700
H1213       H  0.22357756  0.82845047  0.77354111     0.35400
H1214       H  0.19926514  0.79476683  0.76607260     0.40500
H1215       H  0.28138884  0.79738673  0.91350984     0.40100
H1216       H  0.28946678  0.78070404  0.87471825     0.35000
C1217       C  0.17277383  0.84078673  0.04222455    -0.26800
C1218       C  0.14832809  0.83392828  0.02139326    -0.14800
C1219       C  0.12699218  0.80594934  0.01811591     0.35800
C1220       C  0.13279794  0.78579057  0.02680891    -0.26200
C1221       C  0.15999389  0.79329369  0.03670540    -0.15500
C1222       C  0.17931365  0.82072717  0.04829964     0.36900
N1223       N  0.20636924  0.82868611  0.06233789    -0.89700
H1224       H  0.18911413  0.86227774  0.04573933     0.18000
H1225       H  0.11717282  0.76458610  0.01945824     0.18000
N1226       N  0.10052871  0.79764457  0.00090490    -0.88700
H1227       H  0.22158714  0.84342917  0.03955901     0.35400
H1228       H  0.20882325  0.83801647  0.09367611     0.40500
H1229       H  0.09088345  0.80546575  0.02184454     0.40100
H1230       H  0.10396870  0.80617218  0.96881072     0.35000
C1231       C  0.96319406  0.62366013  0.71495948    -0.26800
C1232       C  0.96276308  0.64075460  0.68272561    -0.14800
C1233       C  0.44416695  0.64489103  0.71940116     0.35800
C1234       C  0.44916962  0.64644840  0.76517187    -0.26200
C1235       C  0.95024492  0.64641805  0.77173710    -0.15500
C1236       C  0.95721689  0.62667188  0.76048809     0.36900
N1237       N  0.96307226  0.61380897  0.79500673    -0.89700
H1238       H  0.97410748  0.61318983  0.70633950     0.18000
H1239       H  0.44209756  0.65691200  0.78775045     0.18000
N1240       N  0.42892164  0.65603466  0.70313484    -0.88700
H1241       H  0.96944220  0.60103398  0.78087087     0.35400
H1242       H  0.94419100  0.60101413  0.81373927     0.40500
H1243       H  0.43827428  0.67641727  0.71373326     0.40100
H1244       H  0.40854096  0.64483784  0.71810590     0.35000
C1245       C  0.05775469  0.66806361  0.92885723    -0.26800
C1246       C  0.05772805  0.67444436  0.88382991    -0.14800
C1247       C  0.08119298  0.68102258  0.85440935     0.35800
C1248       C  0.10634547  0.68755239  0.87254034    -0.26200
C1249       C  0.10771463  0.68646022  0.91910257    -0.15500
C1250       C  0.08257555  0.67355815  0.94651134     0.36900
N1251       N  0.08261982  0.66787972  0.99294358    -0.89700
H1252       H  0.03936718  0.66139931  0.95143045     0.18000
H1253       H  0.12534351  0.69602164  0.85083748     0.18000
N1254       N  0.08010144  0.68339511  0.80689190    -0.88700
H1255       H  0.06843068  0.64680533  0.99868347     0.35400
H1256       H  0.07540385  0.67856643  0.01225161     0.40500
H1257       H  0.06508394  0.66388756  0.79550959     0.40100
H1258       H  0.09920806  0.68871921  0.79013442     0.35000
C1259       C  0.06390861  0.80279184  0.82576245    -0.26800
C1260       C  0.06782873  0.78170714  0.81018254    -0.14800
C1261       C  0.09546814  0.78810796  0.80005250     0.35800
C1262       C  0.11828848  0.81360477  0.81284639    -0.26200
C1263       C  0.11394825  0.83283289  0.83567219    -0.15500
C1264       C  0.08673604  0.82831020  0.83845275     0.36900
N1265       N  0.08190405  0.84889141  0.85643937    -0.89700
H1266       H  0.04288878  0.79868192  0.83220086     0.18000
H1267       H  0.13919531  0.81720799  0.80850526     0.18000
N1268       N  0.10044827  0.76805546  0.77999168    -0.88700
H1269       H  0.06754709  0.84037347  0.88420930     0.35400
H1270       H  0.07265716  0.85372800  0.83211070     0.40500
H1271       H  0.11169542  0.76418718  0.80187963     0.40100
H1272       H  0.11298165  0.77656252  0.75034483     0.35000
C1273       C  0.33216304  0.82229790  0.17474036    -0.26800
C1274       C  0.35656897  0.82447614  0.18833381    -0.14800
C1275       C  0.37532151  0.82373471  0.15576486     0.35800
C1276       C  0.37172655  0.82506473  0.11013439    -0.26200
C1277       C  0.34955649  0.82704597  0.09679749    -0.15500
C1278       C  0.32855536  0.82383248  0.12893795     0.36900
N1279       N  0.30583135  0.82599374  0.11545445    -0.89700
H1280       H  0.31807077  0.82348998  0.19982760     0.18000
H1281       H  0.38792735  0.82757611  0.08544596     0.18000
N1282       N  0.40019035  0.82565484  0.16916879    -0.88700
H1283       H  0.29292688  0.82459122  0.14337561     0.35400
H1284       H  0.29351403  0.80900058  0.09545944     0.40500
H1285       H  0.41759349  0.84381025  0.15551049     0.40100
H1286       H  0.40080232  0.80905534  0.15537299     0.35000
C1287       C  0.99551013  0.54385042  0.16970289    -0.26800
C1288       C  0.99587584  0.52504141  0.13905920    -0.14800
C1289       C  0.99160079  0.50014892  0.15563256     0.35800
C1290       C  0.99071752  0.49638303  0.20225436    -0.26200
C1291       C  0.99428449  0.51703597  0.23253676    -0.15500
C1292       C  0.99524272  0.54039248  0.21595990     0.36900
N1293       N  0.99838666  0.56212618  0.24463098    -0.89700
H1294       H  0.99825072  0.56282844  0.15765207     0.18000
H1295       H  0.98915734  0.47803283  0.21475979     0.18000
N1296       N  0.47226904  0.49192017  0.14114550    -0.88700
H1297       H  0.01713051  0.57051059  0.26057802     0.35400
H1298       H  0.98152282  0.55384481  0.26872846     0.40500
H1299       H  0.45512692  0.49036107  0.12671647     0.40100
H1300       H  0.46460829  0.47347126  0.15871435     0.35000
C1301       C  0.40106955  0.91859166  0.41770187    -0.26800
C1302       C  0.40549086  0.89680297  0.42074619    -0.14800
C1303       C  0.42764288  0.90113127  0.44587010     0.35800
C1304       C  0.44925204  0.92808418  0.45474130    -0.26200
C1305       C  0.45558315  0.45435585  0.42456193    -0.15500
C1306       C  0.42851582  0.44849746  0.41782612     0.36900
N1307       N  0.42314362  0.47017400  0.41721238    -0.89700
H1308       H  0.38331268  0.91543713  0.40043253     0.18000
H1309       H  0.97322798  0.93506611  0.45712724     0.18000
N1310       N  0.43050024  0.87866508  0.45610514    -0.88700
H1311       H  0.40641381  0.46514452  0.44052197     0.35400
H1312       H  0.41677090  0.47077314  0.38538436     0.40500
H1313       H  0.43129982  0.87797787  0.49092076     0.40100
H1314       H  0.44977071  0.88299522  0.44149531     0.35000
C1315       C  0.15110018  0.93905404  0.08238573    -0.26800
C1316       C  0.13454386  0.91547889  0.05706183    -0.14800
C1317       C  0.12568293  0.88940087  0.07481014     0.35800
C1318       C  0.13064431  0.88704535  0.11917796    -0.26200
C1319       C  0.14147637  0.90995753  0.14714265    -0.15500
C1320       C  0.15497008  0.93648919  0.12769279     0.36900
N1321       N  0.16826991  0.96033000  0.15571649    -0.89700
H1322       H  0.15772374  0.95911017  0.06882767     0.18000
H1323       H  0.12046802  0.86662607  0.13405992     0.18000
N1324       N  0.10683783  0.86496501  0.05128354    -0.88700
H1325       H  0.17621043  0.97830633  0.13658913     0.35400
H1326       H  0.18550674  0.96123695  0.16850260     0.40500
H1327       H  0.08745905  0.85510771  0.06955410     0.40100
H1328       H  0.11423855  0.85176843  0.05175906     0.35000
C1329       C  0.50510845  0.87725776  0.21067723    -0.26800
C1330       C  0.52754846  0.90481255  0.20689262    -0.14800
C1331       C  0.52199029  0.92592440  0.21315065     0.35800
C1332       C  0.49475533  0.91919100  0.22653363    -0.26200
C1333       C  0.47290655  0.89175899  0.23460799    -0.15500
C1334       C  0.47801205  0.87056124  0.22515521     0.36900
N1335       N  0.45606468  0.84223691  0.23163266    -0.89700
H1336       H  0.50898563  0.86075244  0.20632999     0.18000
H1337       H  0.49111709  0.93564773  0.23318236     0.18000
N1338       N  0.54414380  0.95427482  0.20799904    -0.88700
H1339       H  0.46223309  0.83354740  0.25494515     0.35400
H1340       H  0.45397281  0.83212887  0.20111621     0.40500
H1341       H  0.03573288  0.95445738  0.24390513     0.40100
H1342       H  0.53873416  0.96325148  0.18391732     0.35000
C1343       C  0.11610452  0.49356022  0.30559059    -0.26800
C1344       C  0.11322524  0.97580840  0.31809569    -0.14800
C1345       C  0.10049666  0.97183682  0.36178893     0.35800
C1346       C  0.08388085  0.98284105  0.37269274    -0.26200
C1347       C  0.08332749  0.50028418  0.35144733    -0.15500
C1348       C  0.10325854  0.50835500  0.31454243     0.36900
N1349       N  0.10924565  0.52978494  0.28358824    -0.89700
H1350       H  0.12914805  0.49803581  0.27474739     0.18000
H1351       H  0.07227575  0.97780283  0.40505883     0.18000
N1352       N  0.10242642  0.95482186  0.39372157    -0.88700
H1353       H  0.09188928  0.52327755  0.26481924     0.35400
H1354       H  0.11333312  0.54726633  0.30165250     0.40500
H1355       H  0.08212495  0.93850548  0.40300023     0.40100
H1356       H  0.11104752  0.96657715  0.42224476     0.35000
C1357       C  0.45978394  0.55504967  0.42650549    -0.26800
C1358       C  0.46903908  0.57889684  0.45205694    -0.14800
C1359       C  0.48470169  0.60471460  0.43015255     0.35800
C1360       C  0.48395286  0.60602703  0.38345707    -0.26200
C1361       C  0.46843246  0.58178367  0.35921469    -0.15500
C1362       C  0.45936838  0.55635569  0.37980177     0.36900
N1363       N  0.44518775  0.53142741  0.35474303    -0.89700
H1364       H  0.44848878  0.53504668  0.44304834     0.18000
H1365       H  0.49163616  0.62577403  0.36756167     0.18000
N1366       N  0.49747748  0.62951932  0.45565918    -0.88700
H1367       H  0.42492342  0.51903521  0.36953776     0.35400
H1368       H  0.45550791  0.52101671  0.35809763     0.40500
H1369       H  0.48831247  0.64055604  0.44835004     0.40100
H1370       H  0.51872115  0.64135328  0.44488247     0.35000
C1371       C  0.17971630  0.48530935  0.50580932    -0.26800
C1372       C  0.16559641  0.49864157  0.51908751    -0.14800
C1373       C  0.19191297  0.00065679  0.54439753     0.35800
C1374       C  0.18593607  0.99596559  0.49893356    -0.26200
C1375       C  0.16823741  0.48578172  0.42934343    -0.15500
C1376       C  0.18241921  0.48024599  0.46013491     0.36900
N1377       N  0.20239490  0.47330522  0.44444473    -0.89700
H1378       H  0.19360437  0.48458830  0.52832984     0.18000
H1379       H  0.16485926  0.98868135  0.48969875     0.18000
N1380       N  0.16994702  0.99430110  0.57807316    -0.88700
H1381       H  0.19689638  0.45487501  0.46017567     0.35400
H1382       H  0.22210017  0.48867454  0.45468052     0.40500
H1383       H  0.15497571  0.97319462  0.57671438     0.40100
H1384       H  0.16038060  0.00486202  0.57001695     0.35000
C1385       C  0.29603208  0.54986346  0.51888734    -0.26800
C1386       C  0.28190258  0.54563092  0.56144165    -0.14800
C1387       C  0.29121690  0.53821059  0.59805968     0.35800
C1388       C  0.31690321  0.53977830  0.59302069    -0.26200
C1389       C  0.33264792  0.54731231  0.55172401    -0.15500
C1390       C  0.32117991  0.55030936  0.51353745     0.36900
N1391       N  0.34388000  0.05789910  0.75523731    -0.89700
H1392       H  0.29647010  0.05330829  0.73754217     0.18000
H1393       H  0.32541294  0.53652535  0.62201503     0.18000
N1394       N  0.27545789  0.53057617  0.64071620    -0.88700
H1395       H  0.33275705  0.04747252  0.78492590     0.35400
H1396       H  0.36501582  0.06551071  0.75979722     0.40500
H1397       H  0.28568173  0.52644579  0.66426949     0.40100
H1398       H  0.25643185  0.51208676  0.63630236     0.35000
C1399       C  0.38076320  0.81244842  0.44233716    -0.26800
C1400       C  0.40698837  0.81571165  0.44692569    -0.14800
C1401       C  0.42811830  0.82913747  0.41232889     0.35800
C1402       C  0.42085016  0.83360352  0.37082093    -0.26200
C1403       C  0.39229415  0.81983587  0.36264861    -0.15500
C1404       C  0.37342704  0.81521910  0.39974512     0.36900
N1405       N  0.34500382  0.80693925  0.39341777    -0.89700
H1406       H  0.36466382  0.80371642  0.46956337     0.18000
H1407       H  0.43639454  0.84051894  0.34281201     0.18000
N1408       N  0.45619562  0.83639684  0.41834283    -0.88700
H1409       H  0.33215351  0.78589709  0.40112140     0.35400
H1410       H  0.34281255  0.80924604  0.35962765     0.40500
H1411       H  0.46962457  0.85765689  0.41257394     0.40100
H1412       H  0.46160180  0.82663039  0.39385912     0.35000
C1413       C  0.28725233  0.65266159  0.49171959    -0.26800
C1414       C  0.27078393  0.64700883  0.53178704    -0.14800
C1415       C  0.27647030  0.66846163  0.56185463     0.35800
C1416       C  0.30084178  0.69451083  0.55398533    -0.26200
C1417       C  0.31991928  0.69896360  0.51756924    -0.15500
C1418       C  0.31208355  0.67842603  0.48456984     0.36900
N1419       N  0.33029777  0.68272054  0.44568359    -0.89700
H1420       H  0.28266597  0.63619453  0.46838916     0.18000
H1421       H  0.30622690  0.71046140  0.57871117     0.18000
N1422       N  0.25864401  0.66304510  0.60196930    -0.88700
H1423       H  0.31912745  0.67952809  0.41724935     0.35400
H1424       H  0.33567153  0.66789628  0.44605850     0.40500
H1425       H  0.23888075  0.65750307  0.59219418     0.40100
H1426       H  0.26604741  0.68095025  0.62089147     0.35000
C1427       C  0.43568924  0.67250703  0.56969852    -0.26800
C1428       C  0.43615424  0.65864475  0.53085299    -0.14800
C1429       C  0.43641468  0.66951711  0.48844608     0.35800
C1430       C  0.43493373  0.69316383  0.48633472    -0.26200
C1431       C  0.43158462  0.70520932  0.52577148    -0.15500
C1432       C  0.43268850  0.69506427  0.56764413     0.36900
N1433       N  0.42898056  0.70655077  0.60864649    -0.89700
H1434       H  0.43516348  0.66439269  0.60237154     0.18000
H1435       H  0.43398212  0.70064694  0.45396820     0.18000
N1436       N  0.43740606  0.65669123  0.44717077    -0.88700
H1437       H  0.44560419  0.71141263  0.62817253     0.35400
H1438       H  0.41065673  0.69121158  0.62594174     0.40500
H1439       H  0.41912066  0.63713627  0.44596856     0.40100
H1440       H  0.45468771  0.65463272  0.44634013     0.35000
In1441     In  0.93515609  0.27391634  0.53134528     1.36900
C1442       C  0.96901862  0.25559932  0.52661682     0.77100
O1443       O  0.95729871  0.30433901  0.58515510    -0.61300
O1444       O  0.92689040  0.26305069  0.60514492    -0.52200
C1445       C  0.93529984  0.31094370  0.47962297     0.69800
O1446       O  0.95159491  0.30247412  0.47065657    -0.47100
C1447       C  0.88474874  0.22824664  0.52694452     0.74500
O1448       O  0.97708365  0.27951058  0.54035550    -0.58900
O1449       O  0.88973032  0.24741959  0.55392716    -0.49000
O1450       O  0.94789376  0.24511775  0.50345470    -0.55400
C1451       C  0.94611126  0.28666357  0.61650238     0.84700
O1452       O  0.92084471  0.30186751  0.51602779    -0.57300
O1453       O  0.90499717  0.23350740  0.49944033    -0.60600
In1454     In  0.75527523  0.08420424  0.64393166     1.36900
C1455       C  0.79010711  0.12497294  0.58683131     0.77100
O1456       O  0.71426392  0.08216417  0.65043430    -0.61300
O1457       O  0.74598059  0.10660884  0.69559414    -0.52200
C1458       C  0.73515536  0.03989588  0.59352852     0.69800
O1459       O  0.75909007  0.05114203  0.60887718    -0.47100
C1460       C  0.77719470  0.08235703  0.71788779     0.74500
O1461       O  0.79562160  0.10810062  0.60119691    -0.58900
O1462       O  0.75453694  0.06155313  0.70575350    -0.49000
O1463       O  0.76600284  0.11970751  0.59911793    -0.55400
C1464       C  0.72205784  0.09852272  0.68304186     0.84700
O1465       O  0.72069012  0.04952407  0.60826206    -0.57300
O1466       O  0.78801039  0.10287530  0.69177603    -0.60600
In1467     In  0.89690715  0.10746848  0.63576167     1.36900
C1468       C  0.86656900  0.10299793  0.70894379     0.77100
O1469       O  0.87672241  0.06249428  0.62860080    -0.61300
O1470       O  0.91277947  0.08363781  0.66748539    -0.52200
C1471       C  0.88619811  0.10517345  0.55161444     0.69800
O1472       O  0.86768278  0.10069037  0.58258447    -0.47100
C1473       C  0.93463057  0.15967377  0.61972100     0.74500
O1474       O  0.85817729  0.10104560  0.66991145    -0.58900
O1475       O  0.94075678  0.14146788  0.61512814    -0.49000
O1476       O  0.89175426  0.10980032  0.71082322    -0.55400
C1477       C  0.89190895  0.06089030  0.65579672     0.84700
O1478       O  0.90866480  0.10844871  0.56421747    -0.57300
O1479       O  0.91074412  0.15135904  0.63859989    -0.60600
In1480     In  0.58766682  0.40333734  0.23991496     1.36900
C1481       C  0.04122095  0.39526886  0.22982275     0.77100
O1482       O  0.58404708  0.36789348  0.27697068    -0.61300
O1483       O  0.55913174  0.38384642  0.30082030    -0.52200
C1484       C  0.62195100  0.40289180  0.17497297     0.69800
O1485       O  0.63124723  0.41882003  0.20786933    -0.47100
C1486       C  0.60759535  0.45049019  0.28048151     0.74500
O1487       O  0.54378931  0.37508833  0.21909077    -0.58900
O1488       O  0.60115545  0.44711514  0.24016731    -0.49000
O1489       O  0.56270713  0.41771607  0.20758576    -0.55400
C1490       C  0.56445209  0.36534088  0.30377606     0.84700
O1491       O  0.59587444  0.38590490  0.17808071    -0.57300
O1492       O  0.60806727  0.43092206  0.29791721    -0.60600
In1493     In  0.52021686  0.01020099  0.36862725     1.36900
C1494       C  0.56093936  0.00172224  0.34599458     0.77100
O1495       O  0.55030420  0.05551274  0.37097096    -0.61300
O1496       O  0.54386121  0.03110530  0.42851325    -0.52200
C1497       C  0.49842082  0.00946666  0.29249541     0.69800
O1498       O  0.50538746  0.99270473  0.30182184    -0.47100
C1499       C  0.47562432  0.97357584  0.41807354     0.74500
O1500       O  0.55863913  0.01958497  0.32672929    -0.58900
O1501       O  0.48068025  0.99759481  0.41192891    -0.49000
O1502       O  0.54097343  0.98673075  0.37414941    -0.55400
C1503       C  0.55950793  0.05325934  0.40680621     0.84700
O1504       O  0.50082148  0.02558632  0.32398983    -0.57300
O1505       O  0.49412126  0.96946711  0.40120755    -0.60600
In1506     In  0.88492874  0.37114395  0.28333842     1.36900
C1507       C  0.89976450  0.38587002  0.36491988     0.77100
O1508       O  0.88414421  0.40907925  0.27586177    -0.61300
O1509       O  0.84906949  0.37377610  0.31036058    -0.52200
C1510       C  0.85251894  0.33524685  0.22544251     0.69800
O1511       O  0.86355206  0.36093199  0.22138625    -0.47100
C1512       C  0.93182829  0.37747734  0.24742459     0.74500
O1513       O  0.91461370  0.39896526  0.33029271    -0.58900
O1514       O  0.91443012  0.35712102  0.27235588    -0.49000
O1515       O  0.87822250  0.36215558  0.35837641    -0.55400
C1516       C  0.86145152  0.39908507  0.30028836     0.84700
O1517       O  0.85687878  0.32707080  0.26140353    -0.57300
O1518       O  0.92479972  0.39460332  0.23999953    -0.60600
In1519     In  0.52022661  0.18761292  0.91200497     1.36900
C1520       C  0.56661980  0.23271772  0.87786829     0.77100
O1521       O  0.52691032  0.21661749  0.96730132    -0.61300
O1522       O  0.49151360  0.20305620  0.92845817    -0.52200
C1523       C  0.48829457  0.15399181  0.84973504     0.69800
O1524       O  0.51451196  0.16529959  0.84850833    -0.47100
C1525       C  0.53005682  0.15741527  0.96366427     0.74500
O1526       O  0.54250638  0.22523799  0.86631305    -0.58900
O1527       O  0.51387578  0.16533759  0.97749809    -0.49000
O1528       O  0.56695592  0.21566825  0.90298172    -0.55400
C1529       C  0.01391660  0.21979854  0.95343541     0.84700
O1530       O  0.47768860  0.15897002  0.88441395    -0.57300
O1531       O  0.53768955  0.16197679  0.92265416    -0.60600
In1532     In  0.67962567  0.23758537  0.02596274     1.36900
C1533       C  0.62739981  0.19488305  0.02568017     0.77100
O1534       O  0.69457972  0.20933217  0.01667020    -0.61300
O1535       O  0.68906563  0.22070424  0.08356797    -0.52200
C1536       C  0.70665317  0.26299178  0.94911530     0.69800
O1537       O  0.68059592  0.25223121  0.95702433    -0.47100
C1538       C  0.67671272  0.27736635  0.06581708     0.74500
O1539       O  0.64461545  0.20169879  0.99188609    -0.58900
O1540       O  0.69836660  0.27613705  0.06831228    -0.49000
O1541       O  0.63709788  0.21006004  0.05924723    -0.55400
C1542       C  0.69167287  0.20419401  0.05803606     0.84700
O1543       O  0.71914509  0.26141987  0.98135603    -0.57300
O1544       O  0.65730216  0.25785885  0.04517585    -0.60600
In1545     In  0.68958801  0.38849480  0.93788261     1.36900
C1546       C  0.67556738  0.36050182  0.01172121     0.77100
O1547       O  0.73552404  0.40430548  0.93555212    -0.61300
O1548       O  0.71718179  0.41749568  0.98783441    -0.52200
C1549       C  0.68755371  0.42392585  0.88796278     0.69800
O1550       O  0.70661490  0.41863239  0.88250409    -0.47100
C1551       C  0.65636153  0.34364725  0.89239453     0.74500
O1552       O  0.68696527  0.35619909  0.97734126    -0.58900
O1553       O  0.64786784  0.35729882  0.91414847    -0.49000
O1554       O  0.66925160  0.37854453  0.00777393    -0.55400
C1555       C  0.73828319  0.41696193  0.97236668     0.84700
O1556       O  0.67061021  0.41282639  0.92209609    -0.57300
O1557       O  0.68272082  0.35408789  0.89122756    -0.60600
In1558     In  0.80658524  0.44676896  0.04792340     1.36900
C1559       C  0.82165563  0.40940156  0.03684834     0.77100
O1560       O  0.76069589  0.42192120  0.03948233    -0.61300
O1561       O  0.78768485  0.44377288  0.98221068    -0.52200
C1562       C  0.79166307  0.46433798  0.12331262     0.69800
O1563       O  0.78766089  0.44050713  0.11982740    -0.47100
C1564       C  0.85477772  0.48556989  0.01114054     0.74500
O1565       O  0.82819092  0.42520283  0.07020508    -0.58900
O1566       O  0.83199365  0.48215427  0.99994493    -0.49000
O1567       O  0.80437400  0.40995238  0.01317784    -0.55400
C1568       C  0.76295553  0.42798960  0.99841930     0.84700
O1569       O  0.80363031  0.47922957  0.08873608    -0.57300
O1570       O  0.85311850  0.47290698  0.04620156    -0.60600
In1571     In  0.78345487  0.49508586  0.24673274     1.36900
C1572       C  0.78869766  0.46569187  0.30913830     0.77100
O1573       O  0.77281790  0.45959339  0.19983705    -0.61300
O1574       O  0.79242796  0.49952565  0.17092762    -0.52200
C1575       C  0.72276135  0.98338041  0.26072338     0.69800
O1576       O  0.73837205  0.48408338  0.26830519    -0.47100
C1577       C  0.81200736  0.01764961  0.23570775     0.74500
O1578       O  0.77812007  0.45563096  0.27239219    -0.58900
O1579       O  0.80831227  0.99691510  0.21440142    -0.49000
O1580       O  0.79279052  0.48915413  0.31665874    -0.55400
C1581       C  0.78478393  0.47458510  0.16530475     0.84700
O1582       O  0.74061680  0.99529369  0.22838634    -0.57300
O1583       O  0.78994859  0.01559679  0.25227650    -0.60600
In1584     In  0.70288842  0.02993365  0.34671250     1.36900
C1585       C  0.67188603  0.04841666  0.38821372     0.77100
O1586       O  0.66137901  0.50053447  0.35404944    -0.61300
O1587       O  0.73079443  0.03311199  0.39804029    -0.52200
C1588       C  0.72692761  0.51875264  0.28704152     0.69800
O1589       O  0.70179565  0.51017575  0.27770382    -0.47100
C1590       C  0.72763095  0.07580852  0.30082238     0.74500
O1591       O  0.66255737  0.03057141  0.35718961    -0.58900
O1592       O  0.73968343  0.07184155  0.33140302    -0.49000
O1593       O  0.69586373  0.05508077  0.39945457    -0.55400
C1594       C  0.71140800  0.01233958  0.42012146     0.84700
O1595       O  0.73080646  0.02283913  0.30071477    -0.57300
O1596       O  0.70407696  0.05524275  0.29085477    -0.60600
In1597     In  0.00622475  0.27848174  0.02409089     1.36900
C1598       C  0.53625017  0.33021787  0.00382234     0.77100
O1599       O  0.52159549  0.25908712  0.00237636    -0.61300
O1600       O  0.48113665  0.24059044  0.97642196    -0.52200
C1601       C  0.98950467  0.24834425  0.10111110     0.69800
O1602       O  0.01497890  0.26582603  0.09022075    -0.47100
C1603       C  0.97164798  0.29172291  0.99480564     0.74500
O1604       O  0.52272410  0.32200868  0.04149278    -0.58900
O1605       O  0.97710155  0.27561018  0.97383737    -0.49000
O1606       O  0.53163175  0.31087290  0.97750919    -0.55400
C1607       C  0.50291790  0.23994305  0.97975550     0.84700
O1608       O  0.97280758  0.24785772  0.07457254    -0.57300
O1609       O  0.98044012  0.29777782  0.03374514    -0.60600
In1610     In  0.95880991  0.20185280  0.22043780     1.36900
C1611       C  0.92036105  0.21355809  0.24692392     0.77100
O1612       O  0.96217712  0.20971081  0.29463473    -0.61300
O1613       O  0.00007513  0.22976525  0.25410629    -0.52200
C1614       C  0.93781672  0.14728171  0.22075239     0.69800
O1615       O  0.92653233  0.15821868  0.20278040    -0.47100
C1616       C  0.97955862  0.23014065  0.14163003     0.74500
O1617       O  0.91921963  0.19229371  0.25979626    -0.58900
O1618       O  0.99526083  0.23189544  0.17151739    -0.49000
O1619       O  0.94027404  0.22815052  0.21876050    -0.55400
C1620       C  0.98811534  0.22699512  0.29268491     0.84700
O1621       O  0.96269782  0.16433621  0.23071070    -0.57300
O1622       O  0.95403297  0.21189957  0.14993694    -0.60600
In1623     In  0.88585769  0.07261772  0.28713670     1.36900
C1624       C  0.83957842  0.04037597  0.24694644     0.77100
O1625       O  0.89433199  0.10541974  0.23795591    -0.61300
O1626       O  0.92990635  0.10590113  0.25766734    -0.52200
C1627       C  0.88482904  0.09611482  0.36336753     0.69800
O1628       O  0.86398888  0.08434846  0.33932026    -0.47100
C1629       C  0.88115175  0.02784291  0.32351166     0.74500
O1630       O  0.84213194  0.05872312  0.27403182    -0.58900
O1631       O  0.89522293  0.03816484  0.28647463    -0.49000
O1632       O  0.86186811  0.04095531  0.23561558    -0.55400
C1633       C  0.92068389  0.11826387  0.23720022     0.84700
O1634       O  0.90679037  0.09765314  0.34649251    -0.57300
O1635       O  0.87315852  0.04222532  0.34327522    -0.60600
In1636     In  0.66394514  0.12599516  0.09473238     1.36900
C1637       C  0.60796346  0.10278235  0.08246001     0.77100
O1638       O  0.67107534  0.16717769  0.11005730    -0.61300
O1639       O  0.68910060  0.16179052  0.04833006    -0.52200
C1640       C  0.69717618  0.13751015  0.16465491     0.69800
O1641       O  0.67324513  0.13452529  0.16912860    -0.47100
C1642       C  0.66341085  0.08982896  0.03701493     0.74500
O1643       O  0.61694313  0.09488240  0.11283440    -0.58900
O1644       O  0.67982951  0.11548352  0.03037648    -0.49000
O1645       O  0.62713756  0.12443536  0.06251624    -0.55400
C1646       C  0.68518043  0.17762039  0.07352804     0.84700
O1647       O  0.70271117  0.13174316  0.12585496    -0.57300
O1648       O  0.65115437  0.08310459  0.07578058    -0.60600
In1649     In  0.74540816  0.15304489  0.27502845     1.36900
C1650       C  0.70979248  0.14578788  0.34381767     0.77100
O1651       O  0.71305831  0.15609709  0.23837878    -0.61300
O1652       O  0.73802607  0.14432935  0.20039280    -0.52200
C1653       C  0.79892076  0.19592028  0.28828221     0.69800
O1654       O  0.79090420  0.18651323  0.24966268    -0.47100
C1655       C  0.73773795  0.10332340  0.28376882     0.74500
O1656       O  0.72615819  0.13726256  0.34340249    -0.58900
O1657       O  0.72341692  0.10786313  0.25943168    -0.49000
O1658       O  0.71334165  0.16078585  0.31063550    -0.55400
C1659       C  0.71679504  0.14652697  0.20179595     0.84700
O1660       O  0.77917570  0.18585343  0.31802889    -0.57300
O1661       O  0.75853458  0.12461204  0.29848693    -0.60600
In1662     In  0.88321657  0.24663500  0.31814254     1.36900
C1663       C  0.90271847  0.22268956  0.26800569     0.77100
O1664       O  0.83751571  0.21527912  0.33764304    -0.61300
O1665       O  0.84797770  0.23169272  0.27080288    -0.52200
C1666       C  0.88825466  0.29190656  0.34657793     0.69800
O1667       O  0.87425092  0.26947436  0.36889108    -0.47100
C1668       C  0.93056292  0.26347231  0.36007584     0.74500
O1669       O  0.88865036  0.21193909  0.30480483    -0.58900
O1670       O  0.92907644  0.27513636  0.32589551    -0.49000
O1671       O  0.90348626  0.24388923  0.25408245    -0.55400
C1672       C  0.82886338  0.21514412  0.29920410     0.84700
O1673       O  0.89534879  0.28992470  0.30596253    -0.57300
O1674       O  0.90693389  0.24299256  0.37526568    -0.60600
In1675     In  0.51265313  0.29549562  0.37881947     1.36900
C1676       C  0.95877248  0.27272780  0.37646503     0.77100
O1677       O  0.52647890  0.33829033  0.35767734    -0.61300
O1678       O  0.55019016  0.32118659  0.33237068    -0.52200
C1679       C  0.54427271  0.31147205  0.45279129     0.69800
O1680       O  0.52462173  0.31556841  0.44862952    -0.47100
C1681       C  0.50367115  0.25511710  0.32265543     0.74500
O1682       O  0.96390384  0.26028869  0.40506906    -0.58900
O1683       O  0.51908201  0.28019775  0.31211679    -0.49000
O1684       O  0.98061072  0.29322213  0.35852784    -0.55400
C1685       C  0.54706913  0.34133536  0.33292475     0.84700
O1686       O  0.54537355  0.29642880  0.42220756    -0.57300
O1687       O  0.98932509  0.24107176  0.36934257    -0.60600
In1688     In  0.59690482  0.33953896  0.56318604     1.36900
C1689       C  0.56392991  0.34057070  0.62995023     0.77100
O1690       O  0.56156560  0.33599578  0.52297999    -0.61300
O1691       O  0.58587318  0.32177298  0.49154677    -0.52200
C1692       C  0.65106043  0.38160630  0.57429646     0.69800
O1693       O  0.63246587  0.38639130  0.56564339    -0.47100
C1694       C  0.58583625  0.29024172  0.58882799     0.74500
O1695       O  0.58038696  0.33258720  0.63494107    -0.58900
O1696       O  0.58715654  0.29616246  0.54796996    -0.49000
O1697       O  0.56648003  0.35112727  0.59200595    -0.55400
C1698       C  0.56442284  0.32340357  0.48987672     0.84700
O1699       O  0.64338330  0.35691109  0.56784946    -0.57300
O1700       O  0.59248133  0.30993778  0.61513917    -0.60600
In1701     In  0.72181081  0.42957035  0.64876861     1.36900
C1702       C  0.74429426  0.40436557  0.61280425     0.77100
O1703       O  0.68373750  0.39065915  0.62914177    -0.61300
O1704       O  0.69342969  0.42668578  0.59306640    -0.52200
C1705       C  0.69810762  0.44060575  0.71641425     0.69800
O1706       O  0.69674347  0.41785550  0.71238051    -0.47100
C1707       C  0.77327182  0.46127083  0.68074941     0.74500
O1708       O  0.72913220  0.39577944  0.64943696    -0.58900
O1709       O  0.76646961  0.46786615  0.64529093    -0.49000
O1710       O  0.74631554  0.42492003  0.59343560    -0.55400
C1711       C  0.67705712  0.40057883  0.59855722     0.84700
O1712       O  0.71020405  0.45749234  0.68356230    -0.57300
O1713       O  0.75329112  0.43977107  0.70067721    -0.60600
In1714     In  0.83774001  0.44582599  0.37138898     1.36900
C1715       C  0.87695994  0.49864893  0.35080444     0.77100
O1716       O  0.86971882  0.44044649  0.33341419    -0.61300
O1717       O  0.82702991  0.40733233  0.33389290    -0.52200
C1718       C  0.82601717  0.41834215  0.45123701     0.69800
O1719       O  0.84958239  0.43985445  0.44104110    -0.47100
C1720       C  0.80055647  0.45389604  0.33640681     0.74500
O1721       O  0.86207550  0.49180173  0.38753741    -0.58900
O1722       O  0.80637948  0.43690189  0.32047585    -0.49000
O1723       O  0.87430583  0.47860436  0.32836854    -0.55400
C1724       C  0.85228009  0.41627903  0.32153124     0.84700
O1725       O  0.80851979  0.41200068  0.42209148    -0.57300
O1726       O  0.81019134  0.46341700  0.37399414    -0.67800
In1727     In  0.80072033  0.38220724  0.57887688     1.36900
C1728       C  0.76123550  0.39346837  0.59671065     0.77100
O1729       O  0.80550009  0.39947825  0.64787652    -0.61300
O1730       O  0.84204180  0.41708354  0.60383545    -0.52200
C1731       C  0.78401678  0.33049597  0.60167897     0.69800
O1732       O  0.77072474  0.33648658  0.57707059    -0.47100
C1733       C  0.81849396  0.40263113  0.49441664     0.74500
O1734       O  0.76167910  0.37496233  0.61741699    -0.58900
O1735       O  0.83515021  0.40920927  0.52531089    -0.49000
O1736       O  0.77920549  0.40435274  0.56444753    -0.55400
C1737       C  0.83072077  0.41842202  0.64095275     0.84700
O1738       O  0.80890924  0.35009824  0.60658143    -0.57300
O1739       O  0.79394425  0.38258948  0.50476402    -0.60600
In1740     In  0.73730827  0.26148302  0.68478732     1.36900
C1741       C  0.69664359  0.23345340  0.63316618     0.77100
O1742       O  0.74329516  0.29459026  0.64033838    -0.61300
O1743       O  0.77951113  0.29262103  0.64662097    -0.52200
C1744       C  0.74083953  0.28331268  0.76410401     0.69800
O1745       O  0.72136595  0.27759850  0.73881312    -0.47100
C1746       C  0.72245817  0.21222980  0.71966147     0.74500
O1747       O  0.69601996  0.24964751  0.66222189    -0.58900
O1748       O  0.74400441  0.22568796  0.69248399    -0.49000
O1749       O  0.71937057  0.23402794  0.62739828    -0.55400
C1750       C  0.76890590  0.30482876  0.62932558     0.84700
O1751       O  0.76057160  0.28118258  0.74605471    -0.57300
O1752       O  0.71009483  0.22468462  0.73020556    -0.60600
In1753     In  0.64249378  0.09948603  0.42829067     1.36900
C1754       C  0.65798712  0.06302429  0.40676127     0.77100
O1755       O  0.59898386  0.06631985  0.44831894    -0.61300
O1756       O  0.60612771  0.09128583  0.39065356    -0.52200
C1757       C  0.63594700  0.12624752  0.49764465     0.69800
O1758       O  0.63686911  0.10489155  0.50296217    -0.47100
C1759       C  0.68622236  0.13493069  0.37732673     0.74500
O1760       O  0.66534421  0.07760152  0.44189332    -0.58900
O1761       O  0.66156092  0.12674294  0.36708901    -0.49000
O1762       O  0.64013765  0.06461386  0.38600149    -0.55400
C1763       C  0.58871107  0.07160973  0.41669526     0.84700
O1764       O  0.64116204  0.13518038  0.45782086    -0.57300
O1765       O  0.68831222  0.12823792  0.41616149    -0.60600
In1766     In  0.62293572  0.16518059  0.60635076     1.36900
C1767       C  0.62846675  0.13969400  0.67359687     0.77100
O1768       O  0.61471590  0.12690966  0.56987033    -0.61300
O1769       O  0.63714181  0.16489405  0.53377483    -0.52200
C1770       C  0.58255664  0.17658925  0.61843969     0.69800
O1771       O  0.58901838  0.16644438  0.64859852    -0.47100
C1772       C  0.67127665  0.21183359  0.61432341     0.74500
O1773       O  0.61311141  0.12630755  0.64205127    -0.58900
O1774       O  0.66969562  0.19077659  0.59775486    -0.49000
O1775       O  0.63752739  0.16497387  0.67351541    -0.55400
C1776       C  0.62905343  0.13967572  0.53462847     0.84700
O1777       O  0.59306939  0.17643010  0.57977282    -0.57300
O1778       O  0.64831085  0.21024900  0.62123729    -0.60600
In1779     In  0.54040161  0.21639981  0.65000144     1.36900
C1780       C  0.01111230  0.23770048  0.69847015     0.77100
O1781       O  0.49788552  0.17814137  0.65050168    -0.61300
O1782       O  0.52183294  0.19120583  0.70998303    -0.52200
C1783       C  0.56685287  0.19033745  0.62915165     0.69800
O1784       O  0.55122588  0.19179373  0.60202660    -0.47100
C1785       C  0.57334849  0.26225706  0.60653809     0.74500
O1786       O  0.00164785  0.22296757  0.66379710    -0.58900
O1787       O  0.57816501  0.25821378  0.64576509    -0.49000
O1788       O  0.02981914  0.23583603  0.71686991    -0.55400
C1789       C  0.49927219  0.17391868  0.69171875     0.84700
O1790       O  0.56925349  0.20272501  0.66622164    -0.57300
O1791       O  0.55376771  0.24137570  0.58722210    -0.60600
In1792     In  0.67782023  0.12760652  0.74671552     1.36900
C1793       C  0.71015574  0.18310456  0.73443393     0.77100
O1794       O  0.71502931  0.12507591  0.73704372    -0.61300
O1795       O  0.68154235  0.10157165  0.69342745    -0.52200
C1796       C  0.65896594  0.09246012  0.81811302     0.69800
O1797       O  0.68306213  0.11425027  0.81541588    -0.47100
C1798       C  0.63981875  0.12895252  0.70353257     0.74500
O1799       O  0.69167924  0.17170521  0.76658843    -0.58900
O1800       O  0.65061662  0.11561209  0.68868410    -0.49000
O1801       O  0.71461822  0.16662841  0.71264485    -0.55400
C1802       C  0.70553638  0.10839554  0.70499823     0.84700
O1803       O  0.64396161  0.09020654  0.78693484    -0.57300
O1804       O  0.64502899  0.13751653  0.74320966    -0.60600
In1805     In  0.62789307  0.03941824  0.92933817     1.36900
C1806       C  0.58178764  0.03944693  0.95142653     0.77100
O1807       O  0.62986856  0.04857692  0.00269534    -0.61300
O1808       O  0.66716068  0.07364550  0.96231883    -0.52200
C1809       C  0.61670666  0.49385375  0.92590863     0.69800
O1810       O  0.60395434  0.50161975  0.90362635    -0.47100
C1811       C  0.64847633  0.07155695  0.85492932     0.74500
O1812       O  0.58081601  0.01728187  0.94419477    -0.58900
O1813       O  0.66408012  0.06819801  0.87914061    -0.49000
O1814       O  0.60537593  0.06088822  0.94349371    -0.55400
C1815       C  0.65419370  0.06969089  0.00032984     0.84700
O1816       O  0.62662282  0.00398330  0.96350518    -0.57300
O1817       O  0.62262237  0.05582585  0.86534120    -0.60600
In1818     In  0.58086162  0.41235676  0.96350545     1.36900
C1819       C  0.53277872  0.39422016  0.93290191     0.77100
O1820       O  0.58978539  0.45458205  0.97449221    -0.61300
O1821       O  0.60731142  0.44742371  0.91332757    -0.52200
C1822       C  0.62082177  0.41934205  0.00983606     0.69800
O1823       O  0.60347108  0.42590348  0.02442938    -0.47100
C1824       C  0.55394197  0.35989764  0.99033230     0.74500
O1825       O  0.53828530  0.40402684  0.97229209    -0.58900
O1826       O  0.56851779  0.36824001  0.95290774    -0.49000
O1827       O  0.55327204  0.39735406  0.90709414    -0.55400
C1828       C  0.60457097  0.46448793  0.93788909     0.84700
O1829       O  0.61953391  0.41186368  0.96898653    -0.57300
O1830       O  0.55419580  0.37870952  0.01441519    -0.60600
In1831     In  0.85562591  0.48827611  0.71229736     1.36900
C1832       C  0.80278101  0.47508241  0.69531372     0.77100
O1833       O  0.86755600  0.02985947  0.71603858    -0.61300
O1834       O  0.88242111  0.01496132  0.66215220    -0.52200
C1835       C  0.88150497  0.49692757  0.79044602     0.69800
O1836       O  0.86997978  0.50969239  0.78048189    -0.47100
C1837       C  0.84348152  0.44219706  0.67078894     0.74500
O1838       O  0.80893590  0.47070578  0.73296201    -0.58900
O1839       O  0.86505442  0.46510448  0.65901864    -0.49000
O1840       O  0.82405601  0.48944150  0.66909206    -0.55400
C1841       C  0.88166578  0.03494433  0.67911615     0.84700
O1842       O  0.87811679  0.47884200  0.76232759    -0.57300
O1843       O  0.83086462  0.44242779  0.70716251    -0.60600
In1844     In  0.91506681  0.50152268  0.91356617     1.36900
C1845       C  0.87955692  0.49729413  0.98028189     0.77100
O1846       O  0.88988270  0.01291305  0.87172593    -0.61300
O1847       O  0.90567518  0.48649558  0.84216862    -0.52200
C1848       C  0.96252683  0.03888718  0.94847417     0.69800
O1849       O  0.94165815  0.04088009  0.95921696    -0.47100
C1850       C  0.90024134  0.44964140  0.92810022     0.74500
O1851       O  0.89815413  0.49206040  0.98492693    -0.58900
O1852       O  0.88403265  0.45550699  0.91189053    -0.49000
O1853       O  0.88129889  0.50824481  0.94323642    -0.55400
C1854       C  0.89680619  0.50154326  0.83191023     0.84700
O1855       O  0.95798897  0.02202884  0.91740684    -0.57300
O1856       O  0.92451336  0.46996362  0.93358987    -0.60600
In1857     In  0.52885469  0.05147882  0.02940046     1.36900
C1858       C  0.55916535  0.04121961  0.97350777     0.77100
O1859       O  0.49685935  0.02545778  0.98029374    -0.61300
O1860       O  0.50029580  0.06330914  0.99596467    -0.52200
C1861       C  0.50081214  0.02977061  0.10671923     0.69800
O1862       O  0.50680119  0.01669899  0.07817841    -0.47100
C1863       C  0.57850203  0.08600605  0.06720121     0.74500
O1864       O  0.54084837  0.02275985  0.00062850    -0.58900
O1865       O  0.56713879  0.09497458  0.04294349    -0.49000
O1866       O  0.55948911  0.06340681  0.97195487    -0.55400
C1867       C  0.48794916  0.04099608  0.97386813     0.84700
O1868       O  0.50674016  0.05317843  0.09335513    -0.57300
O1869       O  0.56363347  0.06031839  0.07398787    -0.60600
In1870     In  0.99406271  0.29963544  0.72030278     1.36900
C1871       C  0.00268528  0.25749316  0.71277420     0.77100
O1872       O  0.95367681  0.27285106  0.68640280    -0.61300
O1873       O  0.97959326  0.31532193  0.66806907    -0.52200
C1874       C  0.97963675  0.31678262  0.79637801     0.69800
O1875       O  0.96945332  0.29172149  0.78758502    -0.47100
C1876       C  0.54009208  0.33231103  0.66202248     0.74500
O1877       O  0.01640410  0.27759777  0.73838718    -0.58900
O1878       O  0.51743288  0.32842238  0.64960000    -0.49000
O1879       O  0.98267383  0.25738279  0.69629249    -0.55400
C1880       C  0.95883032  0.29192832  0.65955879     0.84700
O1881       O  0.99818636  0.33300961  0.76771282    -0.57300
O1882       O  0.53870496  0.32313596  0.70074023    -0.60600
In1883     In  0.96181436  0.34281708  0.91756070     1.36900
C1884       C  0.96135324  0.30652371  0.97183854     0.77100
O1885       O  0.95473797  0.30980695  0.86794179    -0.61300
O1886       O  0.98042008  0.35134329  0.84550719    -0.52200
C1887       C  0.92113084  0.35453330  0.93083953     0.69800
O1888       O  0.94692469  0.37222839  0.92725343    -0.47100
C1889       C  0.01364032  0.38215747  0.93788717     0.74500
O1890       O  0.95377566  0.30092369  0.93238957    -0.58900
O1891       O  0.49680519  0.37092706  0.88101620    -0.49000
O1892       O  0.96466860  0.32882975  0.98612317    -0.55400
C1893       C  0.97115194  0.32625772  0.83728050     0.84700
O1894       O  0.91533567  0.33051336  0.92244450    -0.57300
O1895       O  0.99328322  0.37077213  0.96676216    -0.60600
In1896     In  0.86729374  0.37621414  0.98948882     1.36900
C1897       C  0.83589056  0.39462301  0.02295410     0.77100
O1898       O  0.83497490  0.33475898  0.01863582    -0.61300
O1899       O  0.87083191  0.36357593  0.05568826    -0.52200
C1900       C  0.90078093  0.36165367  0.94950100     0.69800
O1901       O  0.87536547  0.35027326  0.93890017    -0.47100
C1902       C  0.89046254  0.42222833  0.94559336     0.74500
O1903       O  0.82865686  0.37822269  0.98961111    -0.58900
O1904       O  0.90099811  0.41950479  0.97998023    -0.49000
O1905       O  0.85816536  0.39991009  0.04055082    -0.55400
C1906       C  0.84782891  0.34039135  0.05467173     0.84700
O1907       O  0.90818195  0.37987878  0.97954099    -0.57300
O1908       O  0.86927722  0.40041227  0.93105852    -0.60600
C1909       C  0.66322120  0.42687497  0.77976104    -0.26800
C1910       C  0.68909140  0.44727677  0.75950397    -0.14800
C1911       C  0.71000084  0.46681121  0.78666192     0.35800
C1912       C  0.70713587  0.46199965  0.83312482    -0.26200
C1913       C  0.68342665  0.43822235  0.85218659    -0.15500
C1914       C  0.66007567  0.42226261  0.82634605     0.36900
N1915       N  0.63508270  0.39866580  0.84615905    -0.89700
H1916       H  0.64698444  0.41207089  0.75874842     0.18000
H1917       H  0.72500430  0.47460221  0.85305055     0.18000
N1918       N  0.73577518  0.48912953  0.76657664    -0.88700
H1919       H  0.62036107  0.38819884  0.82210062     0.35400
H1920       H  0.62609549  0.40589093  0.86988051     0.40500
H1921       H  0.75216048  0.48708494  0.77558158     0.40100
H1922       H  0.73891681  0.50746797  0.78014377     0.35000
C1923       C  0.70777621  0.28409625  0.87716426    -0.26800
C1924       C  0.72066034  0.27520649  0.90466409    -0.14800
C1925       C  0.74430036  0.27484446  0.88703857     0.35800
C1926       C  0.75315198  0.28152764  0.84144642    -0.26200
C1927       C  0.73818131  0.28743044  0.81287288    -0.15500
C1928       C  0.71613696  0.29005807  0.83155331     0.36900
N1929       N  0.70099699  0.29704819  0.80387191    -0.89700
H1930       H  0.68990469  0.28469005  0.89060731     0.18000
H1931       H  0.77006911  0.27938979  0.82734901     0.18000
N1932       N  0.75749139  0.26511456  0.91403695    -0.88700
H1933       H  0.70199217  0.31455553  0.81711329     0.35400
H1934       H  0.67995600  0.28086303  0.80579045     0.40500
H1935       H  0.76760118  0.27973159  0.93883192     0.40100
H1936       H  0.77315116  0.26411935  0.89498938     0.35000
C1937       C  0.69659453  0.34995576  0.06908167    -0.26800
C1938       C  0.67170940  0.34548670  0.05286839    -0.14800
C1939       C  0.64677648  0.31967603  0.06005399     0.35800
C1940       C  0.64817076  0.29776362  0.07527318    -0.26200
C1941       C  0.67434285  0.30087546  0.07978025    -0.15500
C1942       C  0.69829715  0.32756484  0.08166024     0.36900
N1943       N  0.72481704  0.33172812  0.09108247    -0.89700
H1944       H  0.71583350  0.36994875  0.06436564     0.18000
H1945       H  0.62922711  0.27739636  0.07599160     0.18000
N1946       N  0.62047312  0.31424065  0.04650750    -0.88700
H1947       H  0.73885448  0.34150264  0.06326267     0.35400
H1948       H  0.73232873  0.34505283  0.11828165     0.40500
H1949       H  0.61584118  0.32728972  0.06462079     0.40100
H1950       H  0.62229630  0.31864610  0.01229162     0.35000
C1951       C  0.48440625  0.13270777  0.73342862    -0.26800
C1952       C  0.47691778  0.15073940  0.71879486    -0.14800
C1953       C  0.94978041  0.14882206  0.75548699     0.35800
C1954       C  0.94964160  0.14456250  0.80146989    -0.26200
C1955       C  0.47285107  0.14004887  0.80997374    -0.15500
C1956       C  0.48381108  0.12837851  0.77964415     0.36900
N1957       N  0.49828085  0.11633374  0.79611952    -0.89700
H1958       H  0.49656048  0.12750215  0.71047386     0.18000
H1959       H  0.94316391  0.15511198  0.82501948     0.18000
N1960       N  0.94158226  0.16691555  0.74107232    -0.88700
H1961       H  0.50640480  0.10994364  0.76941031     0.35400
H1962       H  0.48349381  0.09864012  0.81437933     0.40500
H1963       H  0.95373341  0.18587847  0.75676262     0.40100
H1964       H  0.92065809  0.15875126  0.75224963     0.35000
C1965       C  0.54976355  0.16139029  0.03605056    -0.26800
C1966       C  0.54422804  0.14928047  0.99354499    -0.14800
C1967       C  0.56253295  0.14180813  0.97343354     0.35800
C1968       C  0.58962476  0.15419865  0.98849965    -0.26200
C1969       C  0.59766076  0.17268236  0.02420849    -0.15500
C1970       C  0.57676988  0.17357371  0.05145948     0.36900
N1971       N  0.58359501  0.18938288  0.09175404    -0.89700
H1972       H  0.53513859  0.16582615  0.05335366     0.18000
H1973       H  0.60521986  0.15189989  0.96930191     0.18000
N1974       N  0.55510032  0.12532547  0.93369691    -0.88700
H1975       H  0.57045992  0.17633690  0.11819414     0.35400
H1976       H  0.57923788  0.20476853  0.08825478     0.40500
H1977       H  0.53770592  0.10580794  0.94274362     0.40100
H1978       H  0.57116505  0.12239200  0.92235240     0.35000
C1979       C  0.58809764  0.28201030  0.85729409    -0.26800
C1980       C  0.59180516  0.26050770  0.86789264    -0.14800
C1981       C  0.61886519  0.26699507  0.87713429     0.35800
C1982       C  0.64082289  0.29470367  0.87998934    -0.26200
C1983       C  0.63619602  0.31609752  0.87457519    -0.15500
C1984       C  0.60995136  0.30966316  0.86105034     0.36900
N1985       N  0.60504125  0.33118171  0.85312327    -0.89700
H1986       H  0.56756591  0.27748423  0.84969670     0.18000
H1987       H  0.66079877  0.29948962  0.89071315     0.18000
N1988       N  0.62377670  0.24557312  0.88607510    -0.88700
H1989       H  0.58844442  0.32822781  0.87515906     0.35400
H1990       H  0.59882224  0.32928802  0.82034764     0.40500
H1991       H  0.63106241  0.24843424  0.91826709     0.40100
H1992       H  0.63961132  0.24766534  0.86307622     0.35000
C1993       C  0.81738743  0.32094907  0.17083230    -0.26800
C1994       C  0.83805833  0.31765841  0.18758353    -0.14800
C1995       C  0.85380329  0.31093893  0.15772576     0.35800
C1996       C  0.85288397  0.31340429  0.11134479    -0.26200
C1997       C  0.83665140  0.32273565  0.09501295    -0.15500
C1998       C  0.81703718  0.32436246  0.12448986     0.36900
N1999       N  0.80007959  0.33366849  0.10804812    -0.89700
H2000       H  0.80513769  0.32593209  0.19398858     0.18000
H2001       H  0.86787127  0.31197546  0.08869205     0.18000
N2002       N  0.87409396  0.30617947  0.17434198    -0.88700
H2003       H  0.78775598  0.33514115  0.13441442     0.35400
H2004       H  0.78622433  0.31864634  0.08649408     0.40500
H2005       H  0.89398244  0.32153683  0.16124423     0.40100
H2006       H  0.87006897  0.28726105  0.16209340     0.35000
C2007       C  0.48926734  0.03758822  0.18564191    -0.26800
C2008       C  0.49113325  0.02002299  0.15388388    -0.14800
C2009       C  0.48871130  0.99570945  0.16910600     0.35800
C2010       C  0.48896621  0.99183908  0.21518093    -0.26200
C2011       C  0.49068864  0.01116495  0.24669456    -0.15500
C2012       C  0.48869105  0.03323218  0.23180052     0.36900
N2013       N  0.48705129  0.05208571  0.26223424    -0.89700
H2014       H  0.49006405  0.05583004  0.17459414     0.18000
H2015       H  0.48918487  0.97421250  0.22629359     0.18000
N2016       N  0.96335391  0.98210103  0.14007102    -0.88700
H2017       H  0.50548934  0.06282918  0.27918941     0.35400
H2018       H  0.46995137  0.04082565  0.28534787     0.40500
H2019       H  0.94567788  0.98041041  0.12743756     0.40100
H2020       H  0.95633573  0.96350289  0.15670273     0.35000
C2021       C  0.90186768  0.42216066  0.40930000    -0.26800
C2022       C  0.90666486  0.40046462  0.40772101    -0.14800
C2023       C  0.93093890  0.40498253  0.42613456     0.35800
C2024       C  0.95274279  0.43188942  0.43437697    -0.26200
C2025       C  0.95002497  0.95245209  0.43634383    -0.15500
C2026       C  0.92304518  0.94666687  0.42953353     0.36900
N2027       N  0.91866809  0.96867272  0.42324536    -0.89700
H2028       H  0.88264681  0.41872854  0.39711932     0.18000
H2029       H  0.47980810  0.43622329  0.43515748     0.18000
N2030       N  0.93572663  0.38308394  0.42838751    -0.88700
H2031       H  0.90291919  0.96612671  0.44683432     0.35400
H2032       H  0.91159711  0.96707552  0.39120776     0.40500
H2033       H  0.94036424  0.38198584  0.46129165     0.40100
H2034       H  0.95346665  0.38826795  0.40737059     0.35000
C2035       C  0.65471763  0.43748759  0.06872684    -0.26800
C2036       C  0.63683756  0.41534356  0.04191404    -0.14800
C2037       C  0.62506226  0.38822400  0.05768620     0.35800
C2038       C  0.62659156  0.38390201  0.10311374    -0.26200
C2039       C  0.63841809  0.40624971  0.13247408    -0.15500
C2040       C  0.65596589  0.43299986  0.11427650     0.36900
N2041       N  0.67158752  0.45593214  0.14299407    -0.89700
H2042       H  0.66437386  0.45839262  0.05626443     0.18000
H2043       H  0.61382506  0.36318518  0.11691495     0.18000
N2044       N  0.60558011  0.36563377  0.03113110    -0.88700
H2045       H  0.66447199  0.46933793  0.14043121     0.35400
H2046       H  0.69259266  0.46633922  0.13107935     0.40500
H2047       H  0.58982876  0.34968235  0.05172595     0.40100
H2048       H  0.61644731  0.35819932  0.01266148     0.35000
C2049       C  0.98996355  0.36404531  0.22221945    -0.26800
C2050       C  0.01363420  0.39098399  0.22117514    -0.14800
C2051       C  0.00978694  0.41331680  0.21979009     0.35800
C2052       C  0.98258370  0.40845676  0.22460402    -0.26200
C2053       C  0.95913667  0.38161805  0.23107511    -0.15500
C2054       C  0.96282276  0.35922181  0.22718732     0.36900
N2055       N  0.93907465  0.33151300  0.22941516    -0.89700
H2056       H  0.99245098  0.34659737  0.22232631     0.18000
H2057       H  0.98001606  0.42586767  0.22635829     0.18000
N2058       N  0.03344762  0.44102385  0.21541580    -0.88700
H2059       H  0.94147099  0.32129333  0.25549021     0.35400
H2060       H  0.93938806  0.32183397  0.19944193     0.40500
H2061       H  0.53136859  0.45019998  0.22361577     0.40100
H2062       H  0.03141070  0.44992207  0.18698432     0.35000
C2063       C  0.62125126  0.99965042  0.28720029    -0.26800
C2064       C  0.60841112  0.47288948  0.30654202    -0.14800
C2065       C  0.59415051  0.46678222  0.34932549     0.35800
C2066       C  0.58117530  0.48089702  0.36391241    -0.26200
C2067       C  0.58493191  0.99839467  0.33710235    -0.15500
C2068       C  0.60303509  0.00870543  0.29778687     0.36900
N2069       N  0.60203143  0.02654889  0.26636924    -0.89700
H2070       H  0.63277382  0.00532361  0.25472305     0.18000
H2071       H  0.56809509  0.47441788  0.39494344     0.18000
N2072       N  0.58979873  0.44407907  0.37543555    -0.88700
H2073       H  0.58198087  0.01661989  0.25433052     0.35400
H2074       H  0.60622679  0.04451611  0.28291797     0.40500
H2075       H  0.56818209  0.42972907  0.37962958     0.40100
H2076       H  0.59721124  0.45131176  0.40709247     0.35000
C2077       C  0.90638056  0.12641139  0.47717315    -0.26800
C2078       C  0.88284127  0.10693365  0.50384089    -0.14800
C2079       C  0.85811513  0.08767695  0.48366864     0.35800
C2080       C  0.85814614  0.08640184  0.43670414    -0.26200
C2081       C  0.88274059  0.10393385  0.41002274    -0.15500
C2082       C  0.90657164  0.12512541  0.43025765     0.36900
N2083       N  0.93120803  0.14437038  0.40312952    -0.89700
H2084       H  0.92514855  0.14179087  0.49303757     0.18000
H2085       H  0.83970519  0.07006820  0.42131390     0.18000
N2086       N  0.83378279  0.06806794  0.51060598    -0.88700
H2087       H  0.94693334  0.15862068  0.42333398     0.35400
H2088       H  0.92582091  0.15554511  0.38366355     0.40500
H2089       H  0.82866482  0.04830661  0.50124901     0.40100
H2090       H  0.81721688  0.07022241  0.50327579     0.35000
C2091       C  0.74750587  0.02254669  0.52521084    -0.26800
C2092       C  0.72645508  0.02047531  0.55584822    -0.14800
C2093       C  0.64361207  0.51051964  0.49356724     0.35800
C2094       C  0.64050362  0.50032670  0.44970503    -0.26200
C2095       C  0.71512954  0.00652086  0.46593368    -0.15500
C2096       C  0.74211041  0.01610590  0.47995897     0.36900
N2097       N  0.76449150  0.02149363  0.44774977    -0.89700
H2098       H  0.76893612  0.03254876  0.53483421     0.18000
H2099       H  0.63026372  0.50583963  0.42649410     0.18000
N2100       N  0.63214176  0.52674973  0.50822083    -0.88700
H2101       H  0.77303618  0.01024892  0.45738392     0.35400
H2102       H  0.78006774  0.04240879  0.44894151     0.40500
H2103       H  0.61814699  0.51659151  0.53589741     0.40100
H2104       H  0.62043175  0.52761598  0.48337403     0.35000
C2105       C  0.79721843  0.06128791  0.75662617    -0.26800
C2106       C  0.79244112  0.08273643  0.75609723    -0.14800
C2107       C  0.81392656  0.10905265  0.76977870     0.35800
C2108       C  0.84168356  0.11572195  0.76404898    -0.26200
C2109       C  0.84690027  0.09563284  0.74821557    -0.15500
C2110       C  0.82490578  0.06778539  0.75152000     0.36900
N2111       N  0.83698524  0.56507438  0.47940690    -0.89700
H2112       H  0.78836011  0.56161145  0.49924788     0.18000
H2113       H  0.85863329  0.13716440  0.76413618     0.18000
N2114       N  0.80869362  0.13061382  0.77919156    -0.88700
H2115       H  0.82642271  0.56852305  0.45560544     0.35400
H2116       H  0.83794154  0.54815476  0.46821478     0.40500
H2117       H  0.81518049  0.13774243  0.81138955     0.40100
H2118       H  0.78710114  0.12252331  0.78065985     0.35000
C2119       C  0.90245360  0.32162859  0.45117457    -0.26800
C2120       C  0.92937986  0.32578792  0.44714825    -0.14800
C2121       C  0.94494049  0.33521681  0.40569741     0.35800
C2122       C  0.93076174  0.33277666  0.36719765    -0.26200
C2123       C  0.90126870  0.31825798  0.37051467    -0.15500
C2124       C  0.88809739  0.31782647  0.41261468     0.36900
N2125       N  0.85879491  0.30816425  0.41739245    -0.89700
H2126       H  0.89083086  0.31670363  0.48352049     0.18000
H2127       H  0.94187976  0.33623493  0.33465071     0.18000
N2128       N  0.97436358  0.34565915  0.40234152    -0.88700
H2129       H  0.84834348  0.28896715  0.43365852     0.35400
H2130       H  0.85074837  0.30508107  0.38576267     0.40500
H2131       H  0.98476936  0.36585243  0.39000494     0.40100
H2132       H  0.97796068  0.33411609  0.37847043     0.35000
C2133       C  0.83433461  0.15125148  0.53872492    -0.26800
C2134       C  0.81115404  0.15013745  0.56139994    -0.14800
C2135       C  0.81068047  0.17441112  0.56559410     0.35800
C2136       C  0.83411580  0.19956401  0.55013906    -0.26200
C2137       C  0.85821163  0.20105888  0.53079501    -0.15500
C2138       C  0.85787391  0.17648733  0.52345108     0.36900
N2139       N  0.88217868  0.17725172  0.50400451    -0.89700
H2140       H  0.83493628  0.13272925  0.53526467     0.18000
H2141       H  0.83413658  0.21827991  0.55599392     0.18000
N2142       N  0.78746082  0.17406477  0.58886172    -0.88700
H2143       H  0.87629955  0.16458071  0.47586755     0.35400
H2144       H  0.88879492  0.16896081  0.52734310     0.40500
H2145       H  0.77961782  0.18204098  0.56724904     0.40100
H2146       H  0.79488440  0.18710209  0.61643198     0.35000
C2147       C  0.96591934  0.19132941  0.55705730    -0.26800
C2148       C  0.95227100  0.18767854  0.60004255    -0.14800
C2149       C  0.95205878  0.21012376  0.61982852     0.35800
C2150       C  0.96578046  0.23529534  0.59738759    -0.26200
C2151       C  0.97443556  0.23743030  0.55192590    -0.15500
C2152       C  0.97597571  0.21579048  0.53194136     0.36900
N2153       N  0.98658653  0.21837418  0.48608990    -0.89700
H2154       H  0.96616621  0.17422470  0.54141085     0.18000
H2155       H  0.96505581  0.25195606  0.61333801     0.18000
N2156       N  0.93700004  0.20788045  0.66166689    -0.88700
H2157       H  0.98634033  0.20063294  0.47637318     0.35400
H2158       H  0.00763568  0.23453882  0.48446667     0.40500
H2159       H  0.94365524  0.20026575  0.68594119     0.40100
H2160       H  0.91555117  0.19450289  0.65825695     0.35000
In2161     In  0.91407235  0.76685578  0.53635649     1.36900
C2162       C  0.93507378  0.73635123  0.51118329     0.77100
O2163       O  0.94490509  0.79684911  0.58376084    -0.61300
O2164       O  0.91369528  0.75671347  0.60856301    -0.52200
C2165       C  0.91984086  0.80699284  0.48639574     0.69800
O2166       O  0.93438037  0.79647041  0.47846939    -0.47100
C2167       C  0.85937901  0.72968611  0.53718837     0.74500
O2168       O  0.94829185  0.75770824  0.53411050    -0.58900
O2169       O  0.87086796  0.74421605  0.57100316    -0.49000
O2170       O  0.91358987  0.73336866  0.49523169    -0.55400
C2171       C  0.93590127  0.77941727  0.61548182     0.84700
O2172       O  0.90527837  0.79956404  0.52308050    -0.57300
O2173       O  0.87573869  0.73557446  0.50273241    -0.60600
In2174     In  0.72270529  0.57305390  0.58653748     1.36900
C2175       C  0.75840032  0.62520687  0.56329698     0.77100
O2176       O  0.69196487  0.58284770  0.61360792    -0.61300
O2177       O  0.71788992  0.58022557  0.65981263    -0.52200
C2178       C  0.68007199  0.53105102  0.54918730     0.69800
O2179       O  0.69024747  0.52806295  0.58339493    -0.47100
C2180       C  0.75877590  0.55714467  0.57632965     0.74500
O2181       O  0.74238443  0.60789926  0.53523858    -0.58900
O2182       O  0.75333568  0.56765282  0.54513519    -0.49000
O2183       O  0.75598264  0.61547496  0.60180066    -0.55400
C2184       C  0.70031768  0.58678914  0.65277555     0.84700
O2185       O  0.69040169  0.55568203  0.53654014    -0.57300
O2186       O  0.74492793  0.55404721  0.61331775    -0.60600
In2187     In  0.91713132  0.58627731  0.56297227     1.36900
C2188       C  0.86241978  0.56373280  0.56026695     0.77100
O2189       O  0.91345101  0.54969255  0.59307655    -0.61300
O2190       O  0.91355276  0.57949720  0.63767321    -0.52200
C2191       C  0.95437878  0.58592846  0.50649830     0.69800
O2192       O  0.92837977  0.56795063  0.50628557    -0.47100
C2193       C  0.93082405  0.63634786  0.53972140     0.74500
O2194       O  0.87685100  0.56187399  0.52764865    -0.58900
O2195       O  0.93910674  0.63218812  0.57554554    -0.49000
O2196       O  0.87605757  0.57673353  0.59350417    -0.55400
C2197       C  0.90849182  0.55531207  0.63232055     0.84700
O2198       O  0.96177243  0.60218847  0.53946835    -0.57300
O2199       O  0.91626646  0.61502441  0.51728341    -0.60600
In2200     In  0.59992825  0.91322861  0.24403609     1.36900
C2201       C  0.04605466  0.89874213  0.22790822     0.77100
O2202       O  0.59553065  0.87832649  0.28445926    -0.61300
O2203       O  0.56347142  0.88736631  0.29192662    -0.52200
C2204       C  0.63395892  0.91120181  0.18049654     0.69800
O2205       O  0.61335193  0.89011192  0.19949524    -0.47100
C2206       C  0.62275254  0.95792128  0.29051004     0.74500
O2207       O  0.56251438  0.89280318  0.20108329    -0.58900
O2208       O  0.62554351  0.95834758  0.24829337    -0.49000
O2209       O  0.57475239  0.93149574  0.22857566    -0.55400
C2210       C  0.57140555  0.87145133  0.30116975     0.84700
O2211       O  0.63917123  0.93347909  0.19791203    -0.57300
O2212       O  0.61457900  0.93498699  0.30880101    -0.60600
In2213     In  0.52420455  0.52239774  0.36313499     1.36900
C2214       C  0.56142387  0.50849059  0.34565481     0.77100
O2215       O  0.55965560  0.56542096  0.35106434    -0.61300
O2216       O  0.54731959  0.55059307  0.41869863    -0.52200
C2217       C  0.50301187  0.52810510  0.29097572     0.69800
O2218       O  0.50752958  0.50908714  0.29602487    -0.47100
C2219       C  0.48070766  0.48057207  0.40812740     0.74500
O2220       O  0.54928159  0.51228120  0.31528471    -0.58900
O2221       O  0.48326391  0.50387288  0.40768039    -0.49000
O2222       O  0.55356675  0.51068077  0.38514744    -0.55400
C2223       C  0.56585286  0.56847257  0.39131738     0.84700
O2224       O  0.50754725  0.54338242  0.32477183    -0.57300
O2225       O  0.50073365  0.48009900  0.38824814    -0.60600
In2226     In  0.88994118  0.87283913  0.29303565     1.36900
C2227       C  0.90126372  0.88387843  0.37791413     0.77100
O2228       O  0.89416088  0.91344362  0.28756596    -0.61300
O2229       O  0.85415841  0.87738041  0.30737802    -0.52200
C2230       C  0.86073459  0.83930413  0.23056198     0.69800
O2231       O  0.87343831  0.86518942  0.22732599    -0.47100
C2232       C  0.93590737  0.87829133  0.25599189     0.74500
O2233       O  0.91933068  0.89474420  0.34554566    -0.58900
O2234       O  0.91810126  0.85727245  0.27940195    -0.49000
O2235       O  0.87755317  0.86361248  0.36775315    -0.55400
C2236       C  0.86894502  0.90322662  0.30250566     0.84700
O2237       O  0.86069842  0.82959527  0.26850315    -0.57300
O2238       O  0.92972432  0.89631302  0.25142015    -0.60600
In2239     In  0.51934190  0.68481898  0.87919403     1.36900
C2240       C  0.56662738  0.72843129  0.84436947     0.77100
O2241       O  0.52919971  0.71378711  0.93700089    -0.61300
O2242       O  0.49121268  0.69948344  0.90544550    -0.52200
C2243       C  0.48461486  0.65341547  0.81744626     0.69800
O2244       O  0.47775713  0.66478571  0.84779100    -0.47100
C2245       C  0.52529883  0.65040135  0.92696750     0.74500
O2246       O  0.54295293  0.72109623  0.83081921    -0.58900
O2247       O  0.50856217  0.65779535  0.93999197    -0.49000
O2248       O  0.56595199  0.71194208  0.87198814    -0.55400
C2249       C  0.00132793  0.72449505  0.92987762     0.84700
O2250       O  0.50887708  0.65786193  0.81952458    -0.57300
O2251       O  0.53571420  0.65771296  0.88748992    -0.60600
In2252     In  0.66650282  0.74029563  0.00639058     1.36900
C2253       C  0.61845020  0.69320028  0.99777371     0.77100
O2254       O  0.68819050  0.71783554  0.00098993    -0.61300
O2255       O  0.67803621  0.72736219  0.06655175    -0.52200
C2256       C  0.70171260  0.77112158  0.93984302     0.69800
O2257       O  0.67584307  0.75448263  0.93570136    -0.47100
C2258       C  0.64874678  0.77213606  0.03771732     0.74500
O2259       O  0.63643542  0.70461409  0.96512950    -0.58900
O2260       O  0.66960223  0.77322036  0.05346912    -0.49000
O2261       O  0.62576128  0.70543012  0.03462894    -0.55400
C2262       C  0.68568064  0.71369344  0.04267946     0.84700
O2263       O  0.70973780  0.77293489  0.97897699    -0.57300
O2264       O  0.63747302  0.75471066  0.00730984    -0.60600
In2265     In  0.66743531  0.88012659  0.92457653     1.36900
C2266       C  0.63769205  0.85431750  0.99820066     0.77100
O2267       O  0.70227691  0.87530367  0.94367062    -0.61300
O2268       O  0.70678717  0.91456537  0.95155978    -0.52200
C2269       C  0.66955979  0.91861319  0.87571170     0.69800
O2270       O  0.68856217  0.91331238  0.87423546    -0.47100
C2271       C  0.64908437  0.83880524  0.86720359     0.74500
O2272       O  0.62773295  0.84766827  0.96035645    -0.58900
O2273       O  0.63867363  0.85336997  0.87293462    -0.49000
O2274       O  0.65912560  0.87820118  0.99949947    -0.55400
C2275       C  0.71656991  0.89969518  0.95786966     0.84700
O2276       O  0.64984425  0.90554107  0.90541225    -0.57300
O2277       O  0.67121950  0.84727935  0.88742475    -0.60600
In2278     In  0.78616055  0.92795974  0.03020144     1.36900
C2279       C  0.80596292  0.89444098  0.01781520     0.77100
O2280       O  0.74598560  0.89366686  0.00384038    -0.61300
O2281       O  0.75999572  0.93492904  0.98587897    -0.52200
C2282       C  0.76856572  0.94158369  0.10810411     0.69800
O2283       O  0.76420344  0.91777479  0.10151743    -0.47100
C2284       C  0.83595144  0.96868554  0.99644102     0.74500
O2285       O  0.80606219  0.90554064  0.05510442    -0.58900
O2286       O  0.81376391  0.95999858  0.97648465    -0.49000
O2287       O  0.79248535  0.89745080  0.98897769    -0.55400
C2288       C  0.74167826  0.90965169  0.98260068     0.84700
O2289       O  0.78180257  0.95790601  0.07556503    -0.57300
O2290       O  0.83218184  0.95872763  0.03522964    -0.60600
In2291     In  0.76176337  0.97156985  0.23330807     1.36900
C2292       C  0.77752442  0.95054308  0.29589401     0.77100
O2293       O  0.74798230  0.93544729  0.18483178    -0.61300
O2294       O  0.77063237  0.97602688  0.15815851    -0.52200
C2295       C  0.74447857  0.50864368  0.26615487     0.69800
O2296       O  0.72041627  0.96124941  0.27298646    -0.47100
C2297       C  0.83716443  0.53515270  0.25335550     0.74500
O2298       O  0.76700151  0.93789333  0.26039279    -0.58900
O2299       O  0.82920038  0.51874996  0.22105697    -0.49000
O2300       O  0.77599776  0.97140564  0.30233060    -0.55400
C2301       C  0.76138988  0.95091845  0.15110334     0.84700
O2302       O  0.76884319  0.52499863  0.24940796    -0.57300
O2303       O  0.81762022  0.53256464  0.27988394    -0.60600
In2304     In  0.69878816  0.53939850  0.32791338     1.36900
C2305       C  0.67482359  0.56361696  0.37131423     0.77100
O2306       O  0.68786593  0.99944216  0.40272737    -0.61300
O2307       O  0.69877149  0.52242408  0.39181280    -0.52200
C2308       C  0.71285403  0.99880966  0.28884885     0.69800
O2309       O  0.68797515  0.99006039  0.30500372    -0.47100
C2310       C  0.72224491  0.58451398  0.28230205     0.74500
O2311       O  0.66463480  0.54844259  0.33703283    -0.58900
O2312       O  0.73463376  0.58103515  0.31307808    -0.49000
O2313       O  0.69691205  0.56559957  0.38435231    -0.55400
C2314       C  0.67299655  0.50332384  0.39066055     0.84700
O2315       O  0.73686433  0.53740527  0.31655583    -0.57300
O2316       O  0.69917390  0.56341390  0.27091561    -0.60600
In2317     In  0.99557019  0.77236529  0.02749713     1.36900
C2318       C  0.53214725  0.82014840  0.00085021     0.77100
O2319       O  0.52002526  0.75019876  0.98950642    -0.61300
O2320       O  0.48006483  0.73303205  0.96266274    -0.52200
C2321       C  0.98473185  0.74351783  0.10424757     0.69800
O2322       O  0.00932412  0.75923738  0.08739581    -0.47100
C2323       C  0.95962144  0.78349354  0.99715808     0.74500
O2324       O  0.51680693  0.81070788  0.03668710    -0.58900
O2325       O  0.96212976  0.76427335  0.98175518    -0.49000
O2326       O  0.53009975  0.80172548  0.97453900    -0.55400
C2327       C  0.50238636  0.73305162  0.96316939     0.84700
O2328       O  0.96626080  0.74383749  0.08347317    -0.57300
O2329       O  0.97193107  0.79401995  0.03271164    -0.60600
In2330     In  0.96270029  0.70602178  0.22911323     1.36900
C2331       C  0.92606582  0.72115788  0.24406451     0.77100
O2332       O  0.96763585  0.71378389  0.30333799    -0.61300
O2333       O  0.00378706  0.73668880  0.25984725    -0.52200
C2334       C  0.94519892  0.65287959  0.24183655     0.69800
O2335       O  0.93077006  0.66318619  0.25124514    -0.47100
C2336       C  0.97769574  0.72706194  0.14584408     0.74500
O2337       O  0.91879446  0.69627229  0.24331735    -0.58900
O2338       O  0.99562568  0.73036731  0.17260446    -0.49000
O2339       O  0.95178024  0.73822591  0.23509404    -0.55400
C2340       C  0.99278677  0.73323702  0.29918487     0.84700
O2341       O  0.96874817  0.66926762  0.22165330    -0.57300
O2342       O  0.95265097  0.70974551  0.15908269    -0.60600
In2343     In  0.91603648  0.57585658  0.29293954     1.36900
C2344       C  0.86662368  0.55312657  0.26325601     0.77100
O2345       O  0.91936697  0.61565404  0.29359331    -0.61300
O2346       O  0.94150723  0.60845079  0.23878492    -0.52200
C2347       C  0.95854688  0.59140802  0.33949166     0.69800
O2348       O  0.93918388  0.59576769  0.35139700    -0.47100
C2349       C  0.89345197  0.52715925  0.33228221     0.74500
O2350       O  0.87320084  0.56704676  0.29918529    -0.58900
O2351       O  0.90689395  0.53285542  0.29385797    -0.49000
O2352       O  0.88648311  0.55324707  0.23980875    -0.55400
C2353       C  0.93526802  0.62481732  0.25790679     0.84700
O2354       O  0.95752067  0.58113527  0.30070947    -0.57300
O2355       O  0.89300435  0.54702497  0.35147016    -0.60600
In2356     In  0.66787945  0.63979028  0.08295241     1.36900
C2357       C  0.61238355  0.61773304  0.07337591     0.77100
O2358       O  0.67334197  0.68016483  0.09838132    -0.61300
O2359       O  0.69036981  0.67513871  0.03516911    -0.52200
C2360       C  0.70158108  0.65215654  0.15136072     0.69800
O2361       O  0.67707293  0.64770951  0.15659643    -0.47100
C2362       C  0.66553143  0.60110878  0.02957282     0.74500
O2363       O  0.62153396  0.61109064  0.10523771    -0.58900
O2364       O  0.68166628  0.62644910  0.01986924    -0.49000
O2365       O  0.63140010  0.63736390  0.04941847    -0.55400
C2366       C  0.68491616  0.69005047  0.06017355     0.84700
O2367       O  0.70805785  0.64820002  0.11186937    -0.57300
O2368       O  0.65437214  0.59600928  0.06910913    -0.60600
In2369     In  0.74624282  0.66477805  0.26366384     1.36900
C2370       C  0.71515081  0.66380952  0.33562989     0.77100
O2371       O  0.71734574  0.67123149  0.22431615    -0.61300
O2372       O  0.74026937  0.65601884  0.18912558    -0.52200
C2373       C  0.80148179  0.70324399  0.27764329     0.69800
O2374       O  0.79066006  0.70295589  0.24155117    -0.47100
C2375       C  0.73148621  0.61228648  0.26779406     0.74500
O2376       O  0.73240756  0.65642258  0.33620814    -0.58900
O2377       O  0.71423086  0.61937553  0.26444319    -0.49000
O2378       O  0.71645131  0.67569397  0.29971895    -0.55400
C2379       C  0.72057065  0.66045882  0.18880968     0.84700
O2380       O  0.78400244  0.68554867  0.30562275    -0.57300
O2381       O  0.75675498  0.63181906  0.26498146    -0.60600
In2382     In  0.88580735  0.75253723  0.30911975     1.36900
C2383       C  0.90731125  0.72992315  0.26086906     0.77100
O2384       O  0.84088679  0.71814971  0.32351945    -0.61300
O2385       O  0.85057658  0.74078790  0.26219150    -0.52200
C2386       C  0.88549069  0.79394337  0.34281847     0.69800
O2387       O  0.87417310  0.77097910  0.36347597    -0.47100
C2388       C  0.93335789  0.77119381  0.35250035     0.74500
O2389       O  0.89002349  0.71739293  0.29407847    -0.58900
O2390       O  0.93177376  0.78192466  0.31714936    -0.49000
O2391       O  0.91014661  0.75234737  0.24812125    -0.55400
C2392       C  0.83180030  0.72143218  0.28776065     0.84700
O2393       O  0.89339314  0.79440016  0.30167594    -0.57300
O2394       O  0.90974554  0.75084410  0.36804395    -0.60600
In2395     In  0.51761269  0.79928754  0.37082069     1.36900
C2396       C  0.96159129  0.78120403  0.37016979     0.77100
O2397       O  0.53115556  0.84198732  0.34971804    -0.61300
O2398       O  0.55640880  0.82620629  0.32660447    -0.52200
C2399       C  0.54567076  0.81392805  0.44860850     0.69800
O2400       O  0.52378225  0.81440250  0.44441393    -0.47100
C2401       C  0.50532339  0.75474745  0.32255534     0.74500
O2402       O  0.96626796  0.77144980  0.40376572    -0.58900
O2403       O  0.52538351  0.77850871  0.31101826    -0.49000
O2404       O  0.98378467  0.79982402  0.34960386    -0.55400
C2405       C  0.55285341  0.84610797  0.32714767     0.84700
O2406       O  0.55134533  0.80348036  0.41524446    -0.57300
O2407       O  0.99483423  0.74967649  0.37446339    -0.60600
In2408     In  0.59095201  0.83631435  0.56629731     1.36900
C2409       C  0.55720851  0.83746003  0.63153936     0.77100
O2410       O  0.55583486  0.83173041  0.52467773    -0.61300
O2411       O  0.58643373  0.82612347  0.49095814    -0.52200
C2412       C  0.64563612  0.87585634  0.58081221     0.69800
O2413       O  0.62869642  0.88211799  0.56853039    -0.47100
C2414       C  0.57539618  0.78473353  0.58514972     0.74500
O2415       O  0.57314721  0.82895754  0.63728751    -0.58900
O2416       O  0.57809185  0.79282564  0.54529541    -0.49000
O2417       O  0.56112909  0.84905200  0.59401841    -0.55400
C2418       C  0.56317153  0.82440853  0.48888901     0.84700
O2419       O  0.63589637  0.85046804  0.57866222    -0.57300
O2420       O  0.58323374  0.80335423  0.61392389    -0.60600
In2421     In  0.71969891  0.92632652  0.64636597     1.36900
C2422       C  0.74561912  0.90640022  0.60468213     0.77100
O2423       O  0.68097184  0.88608056  0.63198607    -0.61300
O2424       O  0.68923214  0.92081167  0.59327395    -0.52200
C2425       C  0.69592110  0.93953398  0.70969934     0.69800
O2426       O  0.69708550  0.91805501  0.71134713    -0.47100
C2427       C  0.76948784  0.95587065  0.68369568     0.74500
O2428       O  0.72824997  0.89388369  0.63800606    -0.58900
O2429       O  0.76347230  0.96493293  0.65027864    -0.49000
O2430       O  0.74748434  0.92801208  0.58974015    -0.55400
C2431       C  0.67290677  0.89502766  0.60177906     0.84700
O2432       O  0.70646710  0.95431188  0.67413450    -0.57300
O2433       O  0.74937983  0.93277479  0.69939295    -0.60600
In2434     In  0.83679524  0.94566614  0.36116018     1.36900
C2435       C  0.87025176  0.99947886  0.33980459     0.77100
O2436       O  0.87340570  0.94367406  0.33368156    -0.61300
O2437       O  0.83194971  0.90991733  0.32334039    -0.52200
C2438       C  0.82584408  0.91945936  0.44269600     0.69800
O2439       O  0.84881641  0.94141292  0.43179625    -0.47100
C2440       C  0.79460948  0.94474824  0.32336014     0.74500
O2441       O  0.85813686  0.99093324  0.37852397    -0.58900
O2442       O  0.80461425  0.93073467  0.30893412    -0.49000
O2443       O  0.86805830  0.98077365  0.31409466    -0.55400
C2444       C  0.85795344  0.91979274  0.31862590     0.84700
O2445       O  0.80816820  0.91200237  0.41341182    -0.57300
O2446       O  0.80381602  0.95664566  0.36001748    -0.67800
In2447     In  0.80384277  0.88616951  0.57326376     1.36900
C2448       C  0.76474580  0.89804814  0.58878094     0.77100
O2449       O  0.80749688  0.90092490  0.64387761    -0.61300
O2450       O  0.84466629  0.92048112  0.60129438    -0.52200
C2451       C  0.78634752  0.83442748  0.59986521     0.69800
O2452       O  0.77285719  0.84041420  0.57568356    -0.47100
C2453       C  0.81931152  0.90453497  0.48675864     0.74500
O2454       O  0.76156441  0.87575609  0.60107123    -0.58900
O2455       O  0.83694587  0.91101757  0.51605238    -0.49000
O2456       O  0.78733012  0.91384037  0.56650335    -0.55400
C2457       C  0.83275542  0.92012262  0.63887668     0.84700
O2458       O  0.81160329  0.85388335  0.60284011    -0.57300
O2459       O  0.79487897  0.88528497  0.49952475    -0.60600
In2460     In  0.73952786  0.76436464  0.68354914     1.36900
C2461       C  0.69476981  0.73720477  0.63829037     0.77100
O2462       O  0.74531712  0.79655037  0.63576615    -0.61300
O2463       O  0.78234813  0.79753216  0.64763255    -0.52200
C2464       C  0.74310469  0.78746434  0.76233699     0.69800
O2465       O  0.72356712  0.78116401  0.73687983    -0.47100
C2466       C  0.72819707  0.71453577  0.71329626     0.74500
O2467       O  0.69583488  0.75181263  0.67152440    -0.58900
O2468       O  0.74610016  0.72750223  0.68067067    -0.49000
O2469       O  0.71729855  0.73839883  0.62629507    -0.55400
C2470       C  0.77139352  0.80852034  0.62765494     0.84700
O2471       O  0.76240248  0.78432698  0.74543652    -0.57300
O2472       O  0.71884559  0.72815234  0.73206543    -0.60600
In2473     In  0.64802483  0.61573554  0.41854701     1.36900
C2474       C  0.66309973  0.57970533  0.39168931     0.77100
O2475       O  0.60401169  0.58274746  0.43640087    -0.61300
O2476       O  0.61253951  0.60719639  0.37759438    -0.52200
C2477       C  0.63911155  0.63767143  0.49303836     0.69800
O2478       O  0.63972236  0.61593847  0.49403938    -0.47100
C2479       C  0.69206272  0.65343176  0.37031389     0.74500
O2480       O  0.66914045  0.59150035  0.42950339    -0.58900
O2481       O  0.66747526  0.64624195  0.36124677    -0.49000
O2482       O  0.64748039  0.58437498  0.37047409    -0.55400
C2483       C  0.59456969  0.58749169  0.40306255     0.84700
O2484       O  0.64594567  0.64945199  0.45508951    -0.57300
O2485       O  0.69403129  0.64524524  0.40801293    -0.60600
In2486     In  0.62066058  0.67011620  0.60665792     1.36900
C2487       C  0.62672281  0.64448295  0.67389076     0.77100
O2488       O  0.61855172  0.63450893  0.56809073    -0.61300
O2489       O  0.63517664  0.67249243  0.53348058    -0.52200
C2490       C  0.57675107  0.67704370  0.61144046     0.69800
O2491       O  0.58231220  0.66674032  0.64255961    -0.47100
C2492       C  0.66844327  0.71688146  0.61974722     0.74500
O2493       O  0.61220823  0.63133017  0.64128410    -0.58900
O2494       O  0.66687708  0.69912634  0.59263189    -0.49000
O2495       O  0.63442990  0.66941304  0.67498161    -0.55400
C2496       C  0.63072100  0.64844103  0.53254329     0.84700
O2497       O  0.59106351  0.68030392  0.57523929    -0.57300
O2498       O  0.64525242  0.71263358  0.63544559    -0.60600
In2499     In  0.52583040  0.70819966  0.63514963     1.36900
C2500       C  0.01200505  0.73332155  0.68194774     0.77100
O2501       O  0.48397459  0.66964569  0.62561464    -0.61300
O2502       O  0.50436315  0.67836438  0.68833521    -0.52200
C2503       C  0.55757940  0.68724059  0.61904360     0.69800
O2504       O  0.54328971  0.68826310  0.58876408    -0.47100
C2505       C  0.56076667  0.75586864  0.59907902     0.74500
O2506       O  0.00444400  0.72080466  0.64492476    -0.58900
O2507       O  0.56310879  0.74958763  0.63837265    -0.49000
O2508       O  0.03106044  0.73161854  0.69959983    -0.55400
C2509       C  0.48319560  0.66242541  0.66604865     0.84700
O2510       O  0.55544018  0.69694170  0.65685229    -0.57300
O2511       O  0.54219252  0.73641270  0.57590341    -0.60600
In2512     In  0.67794058  0.62927816  0.73842836     1.36900
C2513       C  0.71548285  0.68475149  0.72588177     0.77100
O2514       O  0.70524659  0.61242678  0.71978776    -0.61300
O2515       O  0.67220994  0.60395417  0.67846592    -0.52200
C2516       C  0.65947681  0.59589747  0.81237555     0.69800
O2517       O  0.68499556  0.61429179  0.80401660    -0.47100
C2518       C  0.63906683  0.63405831  0.70287726     0.74500
O2519       O  0.70031382  0.67413224  0.76168462    -0.58900
O2520       O  0.64504379  0.61679204  0.68890759    -0.49000
O2521       O  0.71490713  0.66701657  0.69940010    -0.55400
C2522       C  0.69201555  0.60073528  0.68536699     0.84700
O2523       O  0.64346140  0.59613024  0.78525709    -0.57300
O2524       O  0.64955335  0.64558506  0.73922534    -0.60600
In2525     In  0.62821846  0.54604719  0.92763079     1.36900
C2526       C  0.58285036  0.54655787  0.95538709     0.77100
O2527       O  0.63294091  0.55690756  0.00109502    -0.61300
O2528       O  0.66678188  0.58339892  0.95584458    -0.52200
C2529       C  0.61514983  0.98650807  0.93324659     0.69800
O2530       O  0.61430073  0.99699032  0.89711340    -0.47100
C2531       C  0.64884166  0.57612099  0.85095380     0.74500
O2532       O  0.58763039  0.52911217  0.96941340    -0.58900
O2533       O  0.66448038  0.57529249  0.87847750    -0.49000
O2534       O  0.59994743  0.56227595  0.92472909    -0.55400
C2535       C  0.65584467  0.57950060  0.99528438     0.84700
O2536       O  0.63805221  0.51340168  0.94326926    -0.57300
O2537       O  0.62298096  0.55915106  0.85993980    -0.60600
In2538     In  0.57365712  0.90285136  0.96661260     1.36900
C2539       C  0.52492303  0.88458258  0.93632529     0.77100
O2540       O  0.58705897  0.94644430  0.98046339    -0.61300
O2541       O  0.60013902  0.93840939  0.91595409    -0.52200
C2542       C  0.61147539  0.90898911  0.01767678     0.69800
O2543       O  0.59249729  0.91362259  0.03112960    -0.47100
C2544       C  0.54873679  0.85005692  0.98912939     0.74500
O2545       O  0.53044991  0.89401151  0.97593325    -0.58900
O2546       O  0.56488837  0.86006077  0.95336790    -0.49000
O2547       O  0.54559802  0.88831575  0.91047324    -0.55400
C2548       C  0.60066034  0.95627980  0.94296427     0.84700
O2549       O  0.61225619  0.90291881  0.97642007    -0.57300
O2550       O  0.54623195  0.86735677  0.01328402    -0.60600
In2551     In  0.85234718  0.98564828  0.71735600     1.36900
C2552       C  0.79851478  0.96934633  0.70013837     0.77100
O2553       O  0.87525621  0.53307866  0.69469543    -0.61300
O2554       O  0.89208883  0.51096713  0.66251477    -0.52200
C2555       C  0.87868082  0.99506162  0.79590765     0.69800
O2556       O  0.85798948  0.99755426  0.79191703    -0.47100
C2557       C  0.84471999  0.94247882  0.67156188     0.74500
O2558       O  0.80445085  0.96096080  0.73392105    -0.58900
O2559       O  0.86519023  0.96644886  0.66156136    -0.49000
O2560       O  0.81994159  0.98832983  0.67876398    -0.55400
C2561       C  0.89269218  0.53321357  0.66566661     0.84700
O2562       O  0.88513213  0.98659122  0.76057257    -0.57300
O2563       O  0.83180009  0.94032853  0.70890787    -0.60600
In2564     In  0.91075649  0.00089674  0.92166623     1.36900
C2565       C  0.86407590  0.98511165  0.97386791     0.77100
O2566       O  0.90111891  0.51965138  0.86086830    -0.61300
O2567       O  0.90874727  0.99142620  0.84649672    -0.52200
C2568       C  0.96838385  0.53593611  0.93593974     0.69800
O2569       O  0.94956390  0.54104406  0.94619846    -0.47100
C2570       C  0.90289241  0.95173121  0.93763829     0.74500
O2571       O  0.88395274  0.98336989  0.98582329    -0.58900
O2572       O  0.90065308  0.95865896  0.89920821    -0.49000
O2573       O  0.86950846  0.99866281  0.93806890    -0.55400
C2574       C  0.89320314  0.00037788  0.83878062     0.84700
O2575       O  0.96132176  0.51723841  0.90712774    -0.57300
O2576       O  0.91146261  0.97054520  0.96611443    -0.60600
In2577     In  0.53262288  0.56538517  0.02803607     1.36900
C2578       C  0.56174429  0.55087663  0.97731578     0.77100
O2579       O  0.49978530  0.53647008  0.98308663    -0.61300
O2580       O  0.50510283  0.57593370  0.98915344    -0.52200
C2581       C  0.50460815  0.54873590  0.10670843     0.69800
O2582       O  0.50942983  0.53343855  0.08152228    -0.47100
C2583       C  0.58259481  0.60129968  0.06113333     0.74500
O2584       O  0.54536667  0.53576122  0.00969021    -0.58900
O2585       O  0.57186468  0.60887604  0.03298900    -0.49000
O2586       O  0.56101932  0.57192879  0.96852452    -0.55400
C2587       C  0.49198132  0.55216513  0.97146100     0.84700
O2588       O  0.51174754  0.57170053  0.08937136    -0.57300
O2589       O  0.56669583  0.57675589  0.07465434    -0.60600
In2590     In  0.98848171  0.79028920  0.71322054     1.36900
C2591       C  0.00100394  0.75070082  0.69957065     0.77100
O2592       O  0.94694218  0.76487315  0.68147330    -0.61300
O2593       O  0.97522605  0.80624574  0.65911363    -0.52200
C2594       C  0.97037910  0.80400966  0.78982612     0.69800
O2595       O  0.96310899  0.77953417  0.78111808    -0.47100
C2596       C  0.53236759  0.82845133  0.66178540     0.74500
O2597       O  0.01269095  0.76941903  0.72826854    -0.58900
O2598       O  0.51049334  0.82584879  0.64810398    -0.49000
O2599       O  0.98069519  0.75007726  0.68303461    -0.55400
C2600       C  0.95242351  0.78384483  0.65410659     0.84700
O2601       O  0.98803254  0.82124372  0.76127487    -0.57300
O2602       O  0.52927934  0.81724046  0.69939065    -0.60600
In2603     In  0.94880089  0.82926801  0.90906953     1.36900
C2604       C  0.94894179  0.79648772  0.97027552     0.77100
O2605       O  0.94316598  0.79563887  0.86044447    -0.61300
O2606       O  0.96819893  0.83715326  0.83805625    -0.52200
C2607       C  0.90971210  0.84321574  0.91830710     0.69800
O2608       O  0.93530809  0.85968914  0.90828128    -0.47100
C2609       C  0.00038301  0.86920413  0.92865034     0.74500
O2610       O  0.94047566  0.78820650  0.93167229    -0.58900
O2611       O  0.48975679  0.86021000  0.88345038    -0.49000
O2612       O  0.95286586  0.81968211  0.97990660    -0.55400
C2613       C  0.95997715  0.81231413  0.83017879     0.84700
O2614       O  0.90266704  0.81835335  0.91775616    -0.57300
O2615       O  0.97968519  0.85930851  0.95693403    -0.60600
In2616     In  0.86415743  0.87310199  0.98284874     1.36900
C2617       C  0.82391699  0.88304173  0.00681450     0.77100
O2618       O  0.83819128  0.83460921  0.02345885    -0.61300
O2619       O  0.87729892  0.86746396  0.04732857    -0.52200
C2620       C  0.89196070  0.85346000  0.93723040     0.69800
O2621       O  0.86565718  0.84227734  0.93347697    -0.47100
C2622       C  0.89230702  0.92335650  0.95089438     0.74500
O2623       O  0.82278316  0.86965272  0.97123062    -0.58900
O2624       O  0.89615603  0.91747989  0.98938742    -0.49000
O2625       O  0.84407086  0.88903555  0.03064416    -0.55400
C2626       C  0.85535391  0.84374083  0.05419308     0.84700
O2627       O  0.90302085  0.87452897  0.96164340    -0.57300
O2628       O  0.87585352  0.90309120  0.92717752    -0.60600
C2629       C  0.65657819  0.92843934  0.76332553    -0.26800
C2630       C  0.68468002  0.94699107  0.74910726    -0.14800
C2631       C  0.70367292  0.96422180  0.78064601     0.35800
C2632       C  0.69580287  0.95881557  0.82647875    -0.26200
C2633       C  0.66957356  0.93589680  0.84044896    -0.15500
C2634       C  0.64877742  0.92284789  0.80923992     0.36900
N2635       N  0.62103351  0.90092481  0.82337323    -0.89700
H2636       H  0.64172756  0.91535597  0.73902443     0.18000
H2637       H  0.71177732  0.96937582  0.85047759     0.18000
N2638       N  0.73207003  0.98448943  0.76638907    -0.88700
H2639       H  0.61714066  0.88293018  0.80728133     0.35400
H2640       H  0.60688537  0.90571637  0.81251739     0.40500
H2641       H  0.74526762  0.97954157  0.78069456     0.40100
H2642       H  0.73646318  0.00339419  0.77926627     0.35000
C2643       C  0.71299787  0.79833190  0.87079710    -0.26800
C2644       C  0.72073478  0.78546816  0.90045480    -0.14800
C2645       C  0.74188359  0.78037812  0.88674522     0.35800
C2646       C  0.75216660  0.78495575  0.84151941    -0.26200
C2647       C  0.74107415  0.79387165  0.81015797    -0.15500
C2648       C  0.72274182  0.80235924  0.82561555     0.36900
N2649       N  0.71260150  0.81342915  0.79508902    -0.89700
H2650       H  0.69768720  0.80330507  0.88208383     0.18000
H2651       H  0.76648327  0.77864158  0.82994346     0.18000
N2652       N  0.75052850  0.76784135  0.91742854    -0.88700
H2653       H  0.71774823  0.83286972  0.80656677     0.35400
H2654       H  0.69074564  0.80073940  0.79616898     0.40500
H2655       H  0.76056008  0.78196590  0.94289274     0.40100
H2656       H  0.76543934  0.76438742  0.90153074     0.35000
C2657       C  0.65194757  0.83824287  0.05990440    -0.26800
C2658       C  0.63014940  0.83331703  0.03319869    -0.14800
C2659       C  0.60872548  0.80572555  0.02554001     0.35800
C2660       C  0.61349642  0.78478371  0.03381672    -0.26200
C2661       C  0.63910107  0.79098210  0.04965366    -0.15500
C2662       C  0.65726080  0.81738229  0.06664527     0.36900
N2663       N  0.68267522  0.82395066  0.08577411    -0.89700
H2664       H  0.66788807  0.85917327  0.06812989     0.18000
H2665       H  0.59846004  0.76410232  0.02302676     0.18000
N2666       N  0.58359749  0.79870976  0.00459322    -0.88700
H2667       H  0.69956960  0.83957272  0.06622653     0.35400
H2668       H  0.68283201  0.83169517  0.11788663     0.40500
H2669       H  0.58193242  0.81586227  0.00229352     0.40100
H2670       H  0.58487924  0.79222034  0.97191956     0.35000
C2671       C  0.46765457  0.62082683  0.70510257    -0.26800
C2672       C  0.45944548  0.63799181  0.68886492    -0.14800
C2673       C  0.94558968  0.65126687  0.69301252     0.35800
C2674       C  0.94008892  0.65494837  0.73829658    -0.26200
C2675       C  0.46733497  0.63882597  0.77939109    -0.15500
C2676       C  0.47394102  0.62294865  0.75041787     0.36900
N2677       N  0.48951797  0.61179873  0.76576482    -0.89700
H2678       H  0.47621420  0.61218415  0.68136510     0.18000
H2679       H  0.93268702  0.66857233  0.74666143     0.18000
N2680       N  0.93947025  0.66378286  0.65851317    -0.88700
H2681       H  0.49310344  0.60118332  0.73992356     0.35400
H2682       H  0.47700334  0.59730331  0.79095901     0.40500
H2683       H  0.94840282  0.68465126  0.66585449     0.40100
H2684       H  0.91773686  0.65457555  0.65946915     0.35000
C2685       C  0.54008895  0.65121793  0.00118788    -0.26800
C2686       C  0.53728069  0.64040237  0.95794179    -0.14800
C2687       C  0.55817692  0.63590536  0.93974051     0.35800
C2688       C  0.58510182  0.65151032  0.95602239    -0.26200
C2689       C  0.58998581  0.66929056  0.99221842    -0.15500
C2690       C  0.56686168  0.66721953  0.01741472     0.36900
N2691       N  0.57088637  0.68415654  0.05579885    -0.89700
H2692       H  0.52333321  0.65293486  0.01739727     0.18000
H2693       H  0.60253843  0.65164707  0.93822325     0.18000
N2694       N  0.55308602  0.61904950  0.90077499    -0.88700
H2695       H  0.55847736  0.67133132  0.08290392     0.35400
H2696       H  0.56375407  0.69710866  0.04909219     0.40500
H2697       H  0.53725881  0.59892546  0.91013834     0.40100
H2698       H  0.57084722  0.61841411  0.89098020     0.35000
C2699       C  0.58967756  0.77630294  0.81519077    -0.26800
C2700       C  0.59230416  0.75576237  0.83426516    -0.14800
C2701       C  0.61779464  0.76338412  0.85288563     0.35800
C2702       C  0.63825465  0.79130224  0.85783070    -0.26200
C2703       C  0.63377925  0.81182692  0.84483861    -0.15500
C2704       C  0.61011168  0.80426775  0.82060990     0.36900
N2705       N  0.60564307  0.82483264  0.80454791    -0.89700
H2706       H  0.57049552  0.77085299  0.79999173     0.18000
H2707       H  0.65601072  0.79669169  0.87687615     0.18000
N2708       N  0.62209296  0.74298704  0.87029979    -0.88700
H2709       H  0.58673319  0.82128962  0.81968630     0.35400
H2710       H  0.60353753  0.82237324  0.76995032     0.40500
H2711       H  0.62518278  0.74653748  0.90455638     0.40100
H2712       H  0.64046061  0.74565518  0.85436096     0.35000
C2713       C  0.82706535  0.82112746  0.17207516    -0.26800
C2714       C  0.85059703  0.82333944  0.18963006    -0.14800
C2715       C  0.87139559  0.82394016  0.16007909     0.35800
C2716       C  0.87092430  0.82715934  0.11392819    -0.26200
C2717       C  0.84960293  0.82923102  0.09706707    -0.15500
C2718       C  0.82635559  0.82408543  0.12561639     0.36900
N2719       N  0.80411418  0.82564492  0.10819755    -0.89700
H2720       H  0.81128822  0.82109633  0.19487593     0.18000
H2721       H  0.88873190  0.83094548  0.09192892     0.18000
N2722       N  0.89532059  0.82572031  0.17754409    -0.88700
H2723       H  0.78926231  0.82272520  0.13396462     0.35400
H2724       H  0.79379701  0.80925030  0.08617222     0.40500
H2725       H  0.91320129  0.84449987  0.16698704     0.40100
H2726       H  0.89724108  0.80989925  0.16353917     0.35000
C2727       C  0.50371560  0.56353456  0.18526014    -0.26800
C2728       C  0.49512552  0.54184547  0.15470826    -0.14800
C2729       C  0.48309731  0.51477948  0.17134803     0.35800
C2730       C  0.48319480  0.51052901  0.21742724    -0.26200
C2731       C  0.49529350  0.53274006  0.24713469    -0.15500
C2732       C  0.50437340  0.55939431  0.23106642     0.36900
N2733       N  0.51674349  0.58303918  0.25932445    -0.89700
H2734       H  0.51276551  0.58439641  0.17300480     0.18000
H2735       H  0.47554923  0.48993783  0.22968007     0.18000
N2736       N  0.98989693  0.47955755  0.12521769    -0.88700
H2737       H  0.53457152  0.58525252  0.27224715     0.35400
H2738       H  0.50224642  0.57981545  0.28583542     0.40500
H2739       H  0.97178487  0.47212727  0.10766539     0.40100
H2740       H  0.98730488  0.46280976  0.14283448     0.35000
C2741       C  0.90126867  0.91910945  0.42344184    -0.26800
C2742       C  0.90731343  0.89826230  0.42120762    -0.14800
C2743       C  0.93164546  0.90366380  0.44091506     0.35800
C2744       C  0.95290251  0.93084334  0.44881358    -0.26200
C2745       C  0.95091810  0.45420163  0.42196339    -0.15500
C2746       C  0.92457747  0.44947317  0.41321136     0.36900
N2747       N  0.92198488  0.47201035  0.40155525    -0.89700
H2748       H  0.88187424  0.91515001  0.41096816     0.18000
H2749       H  0.46825343  0.93142042  0.46787350     0.18000
N2750       N  0.93685368  0.88227203  0.44611472    -0.88700
H2751       H  0.90564909  0.47094306  0.42192313     0.35400
H2752       H  0.91669220  0.46977709  0.36818892     0.40500
H2753       H  0.94032274  0.88153448  0.47986425     0.40100
H2754       H  0.95541322  0.88782794  0.42720786     0.35000
C2755       C  0.65171345  0.93279891  0.06561116    -0.26800
C2756       C  0.62922109  0.90807254  0.05014560    -0.14800
C2757       C  0.61912416  0.88340792  0.07429509     0.35800
C2758       C  0.63055758  0.88438502  0.11491165    -0.26200
C2759       C  0.64617743  0.90980444  0.13599178    -0.15500
C2760       C  0.66055358  0.93387659  0.10899033     0.36900
N2761       N  0.68085164  0.95970704  0.12794951    -0.89700
H2762       H  0.65982073  0.95164639  0.04651947     0.18000
H2763       H  0.62116966  0.86564007  0.13482696     0.18000
N2764       N  0.59466845  0.85824712  0.06105938    -0.88700
H2765       H  0.68874812  0.97554108  0.10403337     0.35400
H2766       H  0.69773469  0.95823634  0.13603867     0.40500
H2767       H  0.57760915  0.86057489  0.06699935     0.40100
H2768       H  0.59041638  0.84188366  0.08175612     0.35000
C2769       C  0.99472886  0.86636995  0.22583912    -0.26800
C2770       C  0.01782696  0.89362434  0.22242885    -0.14800
C2771       C  0.01300215  0.91532528  0.22195273     0.35800
C2772       C  0.98561886  0.90957970  0.22949305    -0.26200
C2773       C  0.96295091  0.88256355  0.23806687    -0.15500
C2774       C  0.96740109  0.86067615  0.23376186     0.36900
N2775       N  0.94442859  0.83269164  0.23860086    -0.89700
H2776       H  0.99793242  0.84936317  0.22538690     0.18000
H2777       H  0.98242775  0.92659738  0.23153197     0.18000
N2778       N  0.03584636  0.94330489  0.21571175    -0.88700
H2779       H  0.94834216  0.82369981  0.26473576     0.35400
H2780       H  0.94413825  0.82236017  0.20909118     0.40500
H2781       H  0.54533115  0.96409009  0.23853027     0.40100
H2782       H  0.03228776  0.95142944  0.18785115     0.35000
C2783       C  0.61365520  0.49612530  0.28287059    -0.26800
C2784       C  0.62083255  0.97968145  0.31415803    -0.14800
C2785       C  0.60717005  0.97401071  0.35723558     0.35800
C2786       C  0.58905067  0.98317228  0.36821747    -0.26200
C2787       C  0.58194267  0.50052717  0.33592567    -0.15500
C2788       C  0.60021295  0.50981075  0.29685361     0.36900
N2789       N  0.60475693  0.53233456  0.27001528    -0.89700
H2790       H  0.62541600  0.50154426  0.25060527     0.18000
H2791       H  0.57684429  0.97681501  0.40007337     0.18000
N2792       N  0.60974982  0.95703386  0.38831738    -0.88700
H2793       H  0.58608811  0.52701201  0.25600853     0.35400
H2794       H  0.61092649  0.54934407  0.29078029     0.40500
H2795       H  0.58974611  0.93979747  0.39617569     0.40100
H2796       H  0.61722791  0.96822791  0.41771459     0.35000
C2797       C  0.96708778  0.56694033  0.44115365    -0.26800
C2798       C  0.97311744  0.59011144  0.46666888    -0.14800
C2799       C  0.98770297  0.61620599  0.44542944     0.35800
C2800       C  0.98987658  0.61778919  0.39837467    -0.26200
C2801       C  0.97725422  0.59361140  0.37319366    -0.15500
C2802       C  0.96933176  0.56863437  0.39416183     0.36900
N2803       N  0.95845040  0.54403626  0.36832517    -0.89700
H2804       H  0.95650126  0.54682326  0.45721497     0.18000
H2805       H  0.99668491  0.63727343  0.38226918     0.18000
N2806       N  0.99619967  0.64057592  0.47107707    -0.88700
H2807       H  0.93767590  0.53027492  0.37988678     0.35400
H2808       H  0.96992276  0.53520313  0.37478307     0.40500
H2809       H  0.98546699  0.64952050  0.46070980     0.40100
H2810       H  0.01763962  0.65441833  0.46358427     0.35000
C2811       C  0.67056609  0.49019337  0.50797431    -0.26800
C2812       C  0.66145929  0.50794393  0.52092406    -0.14800
C2813       C  0.69848178  0.00638609  0.54326986     0.35800
C2814       C  0.69298060  0.99896405  0.49826235    -0.26200
C2815       C  0.65705641  0.49019006  0.43280557    -0.15500
C2816       C  0.66942206  0.48214572  0.46310256     0.36900
N2817       N  0.68477442  0.46998027  0.44678398    -0.89700
H2818       H  0.68356708  0.48734449  0.52948502     0.18000
H2819       H  0.67201362  0.99086846  0.48762446     0.18000
N2820       N  0.67631934  0.00234567  0.57510748    -0.88700
H2821       H  0.67686670  0.45154718  0.46449612     0.35400
H2822       H  0.70575558  0.48319793  0.45410230     0.40500
H2823       H  0.67459454  0.98918203  0.60035686     0.40100
H2824       H  0.65708148  0.99235189  0.56016444     0.35000
C2825       C  0.79581518  0.55647615  0.52758478    -0.26800
C2826       C  0.78111466  0.55098757  0.56986082    -0.14800
C2827       C  0.79034450  0.54310889  0.60586180     0.35800
C2828       C  0.81600627  0.54466134  0.60067116    -0.26200
C2829       C  0.83233002  0.55347336  0.55987419    -0.15500
C2830       C  0.82127612  0.55755421  0.52210556     0.36900
N2831       N  0.83034484  0.04657295  0.74105213    -0.89700
H2832       H  0.78053048  0.04049939  0.74954442     0.18000
H2833       H  0.82406402  0.54066505  0.62951060     0.18000
N2834       N  0.77461161  0.53499052  0.64833006    -0.88700
H2835       H  0.81990427  0.03644014  0.71239156     0.35400
H2836       H  0.82176551  0.03235512  0.76766377     0.40500
H2837       H  0.78744707  0.54830337  0.67278720     0.40100
H2838       H  0.76960673  0.51517286  0.65607264     0.35000
C2839       C  0.88883043  0.81750280  0.44989919    -0.26800
C2840       C  0.91579235  0.82201200  0.45165225    -0.14800
C2841       C  0.93444630  0.83275203  0.41328986     0.35800
C2842       C  0.92409827  0.83357364  0.37234194    -0.26200
C2843       C  0.89495726  0.81900380  0.36897759    -0.15500
C2844       C  0.87815485  0.81597339  0.40819648     0.36900
N2845       N  0.84901668  0.80642974  0.40615587    -0.89700
H2846       H  0.87459542  0.81081164  0.47963313     0.18000
H2847       H  0.93784586  0.83870228  0.34222113     0.18000
N2848       N  0.96324451  0.84131019  0.41538653    -0.88700
H2849       H  0.83721364  0.78638134  0.41930236     0.35400
H2850       H  0.84412170  0.80532502  0.37268545     0.40500
H2851       H  0.97570263  0.86187583  0.40496647     0.40100
H2852       H  0.96742685  0.82984591  0.39220505     0.35000
C2853       C  0.79379534  0.66175685  0.51014640    -0.26800
C2854       C  0.77962494  0.65436787  0.55266802    -0.14800
C2855       C  0.78879351  0.67413605  0.58707014     0.35800
C2856       C  0.81385105  0.69974591  0.57987522    -0.26200
C2857       C  0.82991088  0.70601327  0.53903843    -0.15500
C2858       C  0.81894451  0.68739389  0.50303330     0.36900
N2859       N  0.83395063  0.69368375  0.45996662    -0.89700
H2860       H  0.78658583  0.64685958  0.48333810     0.18000
H2861       H  0.82166895  0.71418485  0.60726214     0.18000
N2862       N  0.77324309  0.66763175  0.62989485    -0.88700
H2863       H  0.82080461  0.69275310  0.43600549     0.35400
H2864       H  0.83842966  0.67848338  0.45251887     0.40500
H2865       H  0.75363085  0.66450157  0.62465449     0.40100
H2866       H  0.78297679  0.68425197  0.65171171     0.35000
C2867       C  0.95501997  0.68731010  0.54898066    -0.26800
C2868       C  0.93654593  0.66360797  0.52538631    -0.14800
C2869       C  0.92262707  0.66632287  0.48975412     0.35800
C2870       C  0.92508962  0.69144551  0.48226677    -0.26200
C2871       C  0.94116191  0.71426752  0.50916202    -0.15500
C2872       C  0.95758108  0.71258910  0.54099684     0.36900
N2873       N  0.97557408  0.73599997  0.56726968    -0.89700
H2874       H  0.96672745  0.68607156  0.57500658     0.18000
H2875       H  0.91270706  0.69250964  0.45711159     0.18000
N2876       N  0.90480920  0.64384584  0.46164798    -0.88700
H2877       H  0.99594388  0.73999037  0.56252114     0.35400
H2878       H  0.96890899  0.73087057  0.60100930     0.40500
H2879       H  0.88792198  0.62833305  0.48131047     0.40100
H2880       H  0.91643059  0.63637057  0.44561487     0.35000
loop_ 
_geom_bond_atom_site_label_1 
_geom_bond_atom_site_label_2 
_geom_bond_distance 
_geom_bond_site_symmetry_2 
_ccdc_geom_bond_type 
In1           O3   2.222       .  S
In1           O4   2.243       .  S
In1          O12   2.229       .  S
In1           O6   2.256       .  S
In1           O8   2.254       .  S
In1           O9   2.226       .  S
In1          O10   2.260       .  S
In1          O13   2.236       .  S
C2            O8   1.261       .  A
C2           O10   1.260       .  A
C2          C711   1.477       .  S
O3           C11   1.262       .  A
O4           C11   1.259       .  A
C5           O12   1.255       .  A
C5            O6   1.263       .  A
C5          C680   1.474       .  S
C7            O9   1.263       .  A
C7           O13   1.263       .  A
C7          C697   1.478       .  S
C11         C440   1.454       .  S
In14         O16   2.219       .  S
In14         O17   2.210       .  S
In14         O25   2.252       .  S
In14         O19   2.235       .  S
In14         O21   2.237       .  S
In14         O22   2.259       .  S
In14         O23   2.258       .  S
In14         O26   2.207       .  S
C15          O21   1.254       .  A
C15          O23   1.261       .  A
C15         C694   1.479       .  S
O16          C24   1.262       .  A
O17          C24   1.260       .  A
C18          O25   1.259       .  A
C18          O19   1.259       .  A
C18         C652   1.477       .  S
C20          O22   1.265       .  A
C20          O26   1.258       .  A
C20         C666   1.471       .  S
C24         C362   1.444       .  S
In27         O29   2.170       .  S
In27         O30   2.269       .  S
In27         O38   2.177       .  S
In27         O32   2.225       .  S
In27         O34   2.152       .  S
In27         O35   2.275       .  S
In27         O36   2.241       .  S
In27         O39   2.180       .  S
C28          O34   1.267       .  A
C28          O36   1.269       .  A
C28         C669   1.456       .  S
O29          C37   1.260       .  A
O30          C37   1.275       .  A
C31          O38   1.265       .  A
C31          O32   1.265       .  A
C31         C638   1.461       .  S
C33          O35   1.272       .  A
C33          O39   1.257       .  A
C33         C708   1.481       .  S
C37         C401   1.458       .  S
In40         O42   2.252       .  S
In40         O43   2.207       .  S
In40         O51   2.268       .  S
In40         O45   2.186       .  S
In40         O47   2.261       .  S
In40         O48   2.204       .  S
In40         O49   2.241       .  S
In40         O52   2.232       .  S
C41        O1487   1.258       .  A
C41        O1489   1.259       .  A
C41         C610   1.481       .  S
O42          C50   1.264       .  A
O43          C50   1.255       .  A
C44          O51   1.261       .  A
C44          O45   1.260       .  A
C44         C599   1.462       .  S
C46          O48   1.260       .  A
C46          O52   1.262       .  A
C46         C624   1.468       .  S
O47        C1481   1.261       .  A
O49        C1481   1.257       .  A
C50         C245   1.453       .  S
In53         O55   2.225       .  S
In53         O56   2.216       .  S
In53         O64   2.248   1_455  S
In53         O58   2.235       .  S
In53         O60   2.229       .  S
In53         O61   2.274   1_455  S
In53         O62   2.247       .  S
In53         O65   2.193   1_445  S
C54          O60   1.261       .  A
C54          O62   1.259       .  A
C54         C627   1.477   1_545  S
O55          C63   1.257       .  A
O56          C63   1.260       .  A
C57          O64   1.265       .  A
C57          O58   1.264   1_655  A
C57         C571   1.486       .  S
C59          O61   1.265   1_565  A
C59          O65   1.259       .  A
C59        C2025   1.473       .  S
C63         C323   1.450       .  S
In66         O68   2.210       .  S
In66         O69   2.215       .  S
In66         O77   2.253       .  S
In66         O71   2.161       .  S
In66         O73   2.172       .  S
In66         O74   2.210       .  S
In66         O75   2.261       .  S
In66         O78   2.230       .  S
C67          O73   1.262       .  A
C67          O75   1.273       .  A
C67         C582   1.466       .  S
O68          C76   1.270       .  A
O69          C76   1.268       .  A
C70          O77   1.274       .  A
C70          O71   1.265       .  A
C70         C554   1.461       .  S
C72          O74   1.268       .  A
C72          O78   1.271       .  A
C72         C613   1.477       .  S
C76         C284   1.455       .  S
In79         O81   2.243       .  S
In79         O82   2.263   1_455  S
In79         O90   2.252   1_455  S
In79         O84   2.222       .  S
In79         O86   2.274       .  S
In79         O87   2.259       .  S
In79         O88   2.217       .  S
In79         O91   2.202       .  S
C80          O86   1.263       .  A
C80          O88   1.255       .  A
C80         C540   1.485       .  S
O81        C1529   1.259       .  A
O82        C1529   1.264   1_655  A
C83          O90   1.263       .  A
C83          O84   1.260   1_655  A
C83         C515   1.470       .  S
C85          O87   1.265       .  A
C85          O91   1.256       .  A
C85         C526   1.474       .  S
C89        O1521   1.259       .  A
C89        O1522   1.265       .  A
C89        C1607   1.459       .  S
In92         O94   2.217       .  S
In92         O95   2.228       .  S
In92        O103   2.270   1_554  S
In92         O97   2.207   1_554  S
In92         O99   2.237   1_554  S
In92        O100   2.265       .  S
In92        O101   2.219       .  S
In92        O104   2.203       .  S
C93          O99   1.265   1_554  A
C93         O101   1.259       .  A
C93         C529   1.472       .  S
O94         C102   1.257       .  A
O95         C102   1.262       .  A
C96         O103   1.266       .  A
C96          O97   1.262       .  A
C96         C484   1.480       .  S
C98         O100   1.268       .  A
C98         O104   1.257       .  A
C98         C501   1.479       .  S
C102        C206   1.452       .  S
In105       O107   2.222       .  S
In105       O108   2.222       .  S
In105       O116   2.270       .  S
In105       O110   2.190       .  S
In105       O112   2.235       .  S
In105       O113   2.218       .  S
In105       O114   2.250   1_556  S
In105       O117   2.251       .  S
C106        O112   1.254   1_554  A
C106        O114   1.258       .  A
C106        C498   1.478       .  S
O107        C115   1.265       .  A
O108        C115   1.263       .  A
C109        O116   1.266       .  A
C109        O110   1.259       .  A
C109        C473   1.464       .  S
C111        O113   1.261       .  A
C111        O117   1.265       .  A
C111        C543   1.473       .  S
C115        C128   1.452       .  S
In118       O120   2.221   1_554  S
In118       O121   2.239   1_554  S
In118       O129   2.261       .  S
In118       O123   2.289       .  S
In118       O125   2.268       .  S
In118       O126   2.257   1_554  S
In118       O127   2.266   1_554  S
In118       O130   2.222       .  S
C119        O125   1.267       .  A
C119        O127   1.259   1_554  A
C119        C457   1.479       .  S
O120        C128   1.259       .  A
O121        C128   1.262       .  A
C122        O129   1.258       .  A
C122        O123   1.265       .  A
C122        C141   1.483       .  S
C124        O126   1.262       .  A
C124        O130   1.258   1_556  A
C124        C405   1.456       .  S
In131       O133   2.274       .  S
In131       O134   2.261       .  S
In131       O136   2.319       .  S
In131       O138   2.274       .  S
In131       O140   2.276       .  S
In131       O862   2.253       .  S
In131       O859   2.291       .  S
In131       O863   2.226       .  S
C132        O138   1.256       .  A
C132        O140   1.255       .  A
C132        C280   1.472       .  S
O133        C141   1.263       .  A
O134        C141   1.264       .  A
C135        O142   1.258       .  A
C135        O856   1.265       .  A
C135        C868   1.498   1_565  S
O136        C855   1.267       .  A
C137        O139   1.259       .  A
C137        O143   1.255       .  A
C137        C184   1.454       .  S
O139       In851   2.273   1_545  S
O142       In851   2.265       .  S
O143       In851   2.222   1_545  S
In144       O147   2.201       .  S
In144       O155   2.216       .  S
In144       O151   2.304       .  S
In144       O152   2.216       .  S
In144       O153   2.258       .  S
In144       O156   2.210       .  S
In144       O866   2.237   1_545  S
In144       O869   2.337   1_545  S
C145        O151   1.277       .  A
C145        O153   1.264       .  A
C145        C314   1.501       .  S
O146       In864   2.200       .  S
O146        C874   1.273       .  A
O147        C154   1.268       .  A
C148        O149   1.278       .  A
C148        O875   1.270       .  A
C148        C855   1.492       .  S
O149       In864   2.297       .  S
C150        O152   1.269       .  A
C150        O156   1.270       .  A
C150        C215   1.454       .  S
C154        O866   1.269   1_545  A
C154        C655   1.473       .  S
O155        C868   1.261       .  A
In157       O168   2.266       .  S
In157       O162   2.275       .  S
In157       O165   2.230   1_554  S
In157       O169   2.247       .  S
In157      O1599   2.224       .  S
In157      O1600   2.242   1_554  S
In157      O1604   2.284       .  S
In157      O1606   2.286   1_554  S
C158        O164   1.264       .  A
C158        O166   1.262   1_554  A
C158        C384   1.497       .  S
O159      In1597   2.249   1_556  S
O159        C167   1.265       .  A
O160      In1597   2.254   1_656  S
O160        C167   1.261   1_655  A
C161        O168   1.263       .  A
C161        O162   1.261       .  A
C161        C176   1.482       .  S
C163        O165   1.261       .  A
C163        O169   1.265   1_556  A
C163        C444   1.464       .  S
O164      In1597   2.285       .  S
O166      In1597   2.301   1_556  S
C167       C1529   1.472       .  S
In170       O172   2.266       .  S
In170       O173   2.268       .  S
In170       O181   2.305       .  S
In170       O175   2.226       .  S
In170       O177   2.247       .  S
In170       O178   2.282       .  S
In170       O179   2.225       .  S
In170       O182   2.253       .  S
C171        O177   1.257       .  A
C171        O179   1.255       .  A
C171        C223   1.447       .  S
O172        C180   1.256       .  A
O173        C180   1.262       .  A
C174        O181   1.265       .  A
C174        O175   1.255       .  A
C174        C193   1.478       .  S
C176        O178   1.267       .  A
C176        O182   1.260       .  A
C180       C1681   1.473       .  S
In183       O185   2.218       .  S
In183       O186   2.301       .  S
In183       O194   2.190       .  S
In183       O188   2.232       .  S
In183       O190   2.204       .  S
In183       O191   2.294       .  S
In183       O192   2.241       .  S
In183       O195   2.243       .  S
C184        O190   1.262       .  A
C184        O192   1.265       .  A
O185        C193   1.259       .  A
O186        C193   1.267       .  A
C187        O194   1.265       .  A
C187        O188   1.265       .  A
C187        C641   1.468       .  S
C189        O191   1.270       .  A
C189        O195   1.252       .  A
C189        C995   1.480       .  S
In196       O198   2.217       .  S
In196       O199   2.225       .  S
In196       O207   2.276       .  S
In196       O201   2.276       .  S
In196       O203   2.298       .  S
In196       O204   2.251       .  S
In196       O205   2.289       .  S
In196       O208   2.240       .  S
C197        O203   1.271       .  A
C197        O205   1.260       .  A
C197        C423   1.499       .  S
O198        C206   1.262       .  A
O199        C206   1.265       .  A
C200        O207   1.261       .  A
C200        O201   1.267       .  A
C200        C219   1.489       .  S
C202        O204   1.265       .  A
C202        O208   1.264       .  A
C202        C375   1.469       .  S
In209       O211   2.263       .  S
In209       O212   2.281       .  S
In209       O220   2.275       .  S
In209       O214   2.316       .  S
In209       O216   2.221       .  S
In209       O217   2.232       .  S
In209       O218   2.267       .  S
In209       O221   2.266       .  S
C210        O216   1.257       .  A
C210        O218   1.264       .  A
C210        C319   1.461       .  S
O211        C219   1.264       .  A
O212        C219   1.267       .  A
C213        O220   1.255       .  A
C213        O214   1.266       .  A
C213        C232   1.496       .  S
C215        O217   1.250       .  A
C215        O221   1.258       .  A
In222       O224   2.269       .  S
In222       O225   2.265       .  S
In222       O233   2.214       .  S
In222       O227   2.169       .  S
In222       O229   2.194       .  S
In222       O230   2.236       .  S
In222       O231   2.176       .  S
In222       O234   2.325       .  S
C223        O229   1.272       .  A
C223        O231   1.273       .  A
O224        C232   1.277       .  A
O225        C232   1.268       .  A
C226        O233   1.273       .  A
C226        O227   1.273       .  A
C226        C683   1.466       .  S
C228        O230   1.267       .  A
C228        O234   1.283       .  A
C228        C236   1.506       .  S
In235       O237   2.215       .  S
In235       O238   2.239       .  S
In235       O246   2.306       .  S
In235       O240   2.304       .  S
In235       O243   2.257       .  S
In235      O1682   2.334   1_455  S
In235      O1684   2.248   1_455  S
In235      O1687   2.254   1_455  S
C236        O242   1.268       .  A
C236        O244   1.261       .  A
O237        C245   1.263       .  A
O238        C245   1.261       .  A
C239        O246   1.262       .  A
C239        O240   1.262       .  A
C239        C258   1.507       .  S
C241        O243   1.260       .  A
C241       O1687   1.265   1_455  A
C241       C1620   1.475   1_455  S
O242      In1675   2.340       .  S
O244      In1675   2.266       .  S
O247      In1675   2.277       .  S
O247       C1681   1.267       .  A
In248       O250   2.301       .  S
In248       O251   2.309       .  S
In248       O259   2.276       .  S
In248       O253   2.341       .  S
In248       O255   2.226       .  S
In248       O256   2.274       .  S
In248       O257   2.268       .  S
In248       O260   2.225       .  S
C249        O255   1.252       .  A
C249        O257   1.262       .  A
C249        C436   1.454       .  S
O250        C258   1.265       .  A
O251        C258   1.268       .  A
C252        O259   1.257       .  A
C252        O253   1.263       .  A
C252        C271   1.507       .  S
C254        O256   1.259       .  A
C254        O260   1.256       .  A
C254        C345   1.454       .  S
In261       O263   2.238       .  S
In261       O264   2.320       .  S
In261       O272   2.233       .  S
In261       O266   2.177       .  S
In261       O268   2.165       .  S
In261       O269   2.304       .  S
In261       O270   2.191       .  S
In261       O273   2.268       .  S
C262        O268   1.274       .  A
C262        O270   1.278       .  A
C262        C288   1.446       .  S
O263        C271   1.269       .  A
O264        C271   1.281       .  A
C265        O272   1.274       .  A
C265        O266   1.271       .  A
C265        C470   1.467       .  S
C267        O269   1.282       .  A
C267        O273   1.273       .  A
C267        C392   1.513       .  S
In274       O276   2.217       .  S
In274       O277   2.250       .  S
In274       O285   2.284       .  S
In274       O279   2.313       .  S
In274       O281   2.297       .  S
In274       O282   2.251       .  S
In274       O283   2.249       .  S
In274       O286   2.264       .  S
C275        O281   1.268       .  A
C275        O283   1.259       .  A
C275        C909   1.486       .  S
O276        C284   1.260       .  A
O277        C284   1.263       .  A
C278        O285   1.260       .  A
C278        O279   1.263       .  A
C278        C293   1.497       .  S
C280        O282   1.260       .  A
C280        O286   1.262       .  A
In287       O289   2.225       .  S
In287       O290   2.277       .  S
In287       O298   2.328       .  S
In287       O292   2.249       .  S
In287       O294   2.233       .  S
In287       O295   2.301       .  S
In287       O296   2.245       .  S
In287       O299   2.266       .  S
C288        O294   1.257       .  A
C288        O296   1.254       .  A
O289        C297   1.254       .  A
O290        C297   1.264       .  A
C291        O298   1.265       .  A
C291        O292   1.260       .  A
C291        C310   1.499       .  S
C293        O295   1.267       .  A
C293        O299   1.261       .  A
C297        C397   1.462       .  S
In300       O302   2.232       .  S
In300       O303   2.345       .  S
In300       O311   2.268       .  S
In300       O305   2.210       .  S
In300       O307   2.224       .  S
In300       O308   2.335       .  S
In300       O309   2.220       .  S
In300       O312   2.255       .  S
C301        O307   1.266       .  A
C301        O309   1.264       .  A
C301        C332   1.453       .  S
O302        C310   1.256       .  A
O303        C310   1.275       .  A
C304        O311   1.269       .  A
C304        O305   1.264       .  A
C304        C487   1.489       .  S
C306        O308   1.275       .  A
C306        O312   1.255       .  A
C306        C353   1.501       .  S
In313       O315   2.203       .  S
In313       O316   2.231       .  S
In313       O324   2.271       .  S
In313       O318   2.282       .  S
In313       O320   2.290       .  S
In313       O321   2.246       .  S
In313       O322   2.300       .  S
In313       O325   2.222       .  S
C314        O320   1.270       .  A
C314        O322   1.262       .  A
O315        C323   1.263       .  A
O316        C323   1.266       .  A
C317        O324   1.261       .  A
C317        O318   1.268       .  A
C317        C336   1.491       .  S
C319        O321   1.265       .  A
C319        O325   1.263       .  A
In326       O328   2.269       .  S
In326       O329   2.285       .  S
In326       O337   2.306       .  S
In326       O331   2.259       .  S
In326       O333   2.278       .  S
In326       O334   2.252       .  S
In326       O335   2.218       .  S
In326       O338   2.250       .  S
C327        O333   1.263       .  A
C327        O335   1.254       .  A
C327        C358   1.458       .  S
O328        C336   1.263       .  A
O329        C336   1.268       .  A
C330        O337   1.264       .  A
C330        O331   1.254       .  A
C330        C343   1.486       .  S
C332        O334   1.255       .  A
C332        O338   1.254       .  A
In339       O341   2.226   1_455  S
In339       O342   2.157       .  S
In339       O350   2.237       .  S
In339       O344   2.259       .  S
In339       O347   2.174       .  S
In339       O351   2.206       .  S
In339      O1786   2.229       .  S
In339      O1788   2.274       .  S
C340        O346   1.275       .  A
C340        O348   1.278       .  A
C340        C431   1.488       .  S
O341        C349   1.274       .  A
O342        C349   1.271   1_455  A
C343        O350   1.276       .  A
C343        O344   1.272       .  A
C345        O347   1.274       .  A
C345        O351   1.278       .  A
O346      In1779   2.215       .  S
O348      In1779   2.263       .  S
C349        C512   1.462       .  S
In352       O354   2.204       .  S
In352       O355   2.220       .  S
In352       O363   2.280       .  S
In352       O357   2.296       .  S
In352       O359   2.287       .  S
In352       O360   2.249       .  S
In352       O361   2.312       .  S
In352       O364   2.223       .  S
C353        O359   1.268       .  A
C353        O361   1.260       .  A
O354        C362   1.262       .  A
O355        C362   1.262       .  A
C356        O363   1.260       .  A
C356        O357   1.266       .  A
C356        C371   1.495       .  S
C358        O360   1.263       .  A
C358        O364   1.262       .  A
In365       O367   2.242   1_556  S
In365       O368   2.280       .  S
In365       O376   2.272       .  S
In365       O372   2.266       .  S
In365       O373   2.287       .  S
In365       O374   2.234       .  S
In365       O377   2.276       .  S
In365      O1090   2.317   1_545  S
C366        O372   1.257       .  A
C366        O374   1.254       .  A
C366        C418   1.456       .  S
O367        C375   1.256       .  A
O368        C375   1.263   1_556  A
C369        O370   1.265       .  A
C369       O1096   1.257       .  A
C369        C388   1.496       .  S
O370      In1085   2.322       .  S
C371        O373   1.266       .  A
C371        O377   1.264       .  A
O376       C1089   1.258   1_545  A
In378       O380   2.229       .  S
In378       O381   2.298       .  S
In378       O389   2.226       .  S
In378       O383   2.192   1_556  S
In378       O385   2.217       .  S
In378       O386   2.274       .  S
In378       O387   2.208       .  S
In378       O390   2.242   1_556  S
C379        O385   1.276       .  A
C379        O387   1.273       .  A
C379       C1889   1.467       .  S
O380        C388   1.270       .  A
O381        C388   1.278       .  A
C382        O389   1.275   1_554  A
C382        O383   1.273       .  A
C382        C596   1.469       .  S
C384        O386   1.282   1_554  A
C384        O390   1.275       .  A
In391       O402   2.288       .  S
In391       O396   2.310       .  S
In391       O398   2.311       .  S
In391       O399   2.255       .  S
In391       O400   2.329       .  S
In391       O403   2.233       .  S
In391      O1113   2.250       .  S
In391      O1114   2.232       .  S
C392        O398   1.263       .  A
C392        O400   1.262       .  A
O393      In1111   2.192   1_545  S
O393        C401   1.260       .  A
O394      In1111   2.275   1_545  S
O394        C401   1.265       .  A
C395        O402   1.258       .  A
C395        O396   1.262       .  A
C395        C414   1.495       .  S
C397        O399   1.261       .  A
C397        O403   1.263       .  A
In404       O407   2.266       .  S
In404       O411   2.230       .  S
In404       O412   2.268       .  S
In404       O413   2.264       .  S
In404       O416   2.240       .  S
In404      O1126   2.286       .  S
In404      O1135   2.254       .  S
In404      O1129   2.321       .  S
C405        O411   1.254       .  A
C405        O413   1.256       .  A
O406      In1124   2.275   1_545  S
O406       C1134   1.266   1_545  A
O407        C414   1.265       .  A
C408        O415   1.261       .  A
C408        O409   1.265       .  A
C408       C1867   1.503       .  S
O409      In1124   2.330   1_545  S
C410        O412   1.258       .  A
C410        O416   1.254       .  A
C410        C462   1.459       .  S
C414       O1126   1.269       .  A
O415      In1124   2.259   1_545  S
In417       O419   2.228   1_454  S
In417       O420   2.332   1_454  S
In417       O428   2.236       .  S
In417       O422   2.232       .  S
In417       O424   2.229       .  S
In417       O425   2.298       .  S
In417       O426   2.203   1_554  S
In417       O429   2.260       .  S
C418        O424   1.271   1_556  A
C418        O426   1.267       .  A
O419        C427   1.260       .  A
O420        C427   1.275       .  A
C421        O428   1.268   1_655  A
C421        O422   1.269   1_655  A
C421        C568   1.484       .  S
C423        O425   1.277       .  A
C423        O429   1.262       .  A
C427       C1848   1.497       .  S
In430       O432   2.249       .  S
In430       O433   2.216       .  S
In430       O441   2.259       .  S
In430       O435   2.287       .  S
In430       O437   2.303       .  S
In430       O439   2.252       .  S
In430      O1878   2.237       .  S
In430      O1882   2.245       .  S
C431        O437   1.263       .  A
C431        O439   1.259       .  A
O432        C440   1.266       .  A
O433        C440   1.259       .  A
C434        O441   1.257       .  A
C434        O435   1.261       .  A
C434        C453   1.479       .  S
C436        O438   1.256       .  A
C436        O442   1.263       .  A
O438      In1870   2.239   1_455  S
O442      In1870   2.236   1_455  S
In443       O445   2.274       .  S
In443       O446   2.257       .  S
In443       O454   2.316       .  S
In443       O448   2.248       .  S
In443       O450   2.257       .  S
In443       O452   2.265       .  S
In443       O455   2.233       .  S
In443      O1891   2.263       .  S
C444        O450   1.257       .  A
C444        O452   1.258       .  A
O445        C453   1.263       .  A
O446        C453   1.262       .  A
C447        O454   1.261       .  A
C447        O448   1.252       .  A
C447        C460   1.481       .  S
C449        O455   1.258       .  A
C449       O1891   1.259       .  A
C449       C1819   1.456       .  S
O451      In1883   2.266   1_455  S
O451       C1889   1.261       .  A
In456       O458   2.228   1_556  S
In456       O459   2.188   1_556  S
In456       O467   2.203       .  S
In456       O461   2.284       .  S
In456       O463   2.259       .  S
In456       O464   2.200       .  S
In456       O465   2.218   1_556  S
In456       O468   2.216       .  S
C457        O463   1.281   1_554  A
C457        O465   1.267       .  A
O458        C466   1.270       .  A
O459        C466   1.271       .  A
C460        O467   1.266       .  A
C460        O461   1.277       .  A
C462        O464   1.273       .  A
C462        O468   1.273       .  A
C466        C557   1.464       .  S
C469        C470   1.401       .  A
C469        C474   1.404       .  A
C469        H476   1.084       .  S
C470        C471   1.404       .  A
C471        C472   1.404       .  A
C471        N478   1.432       .  S
C472        C473   1.404       .  A
C472        H477   1.084       .  S
C473        C474   1.407       .  A
C474        N475   1.437       .  S
N475        H479   1.046       .  S
N475        H480   1.045       .  S
N478        H481   1.045       .  S
N478        H482   1.046       .  S
C483        C484   1.398       .  A
C483        C488   1.396       .  A
C483        H490   1.078       .  S
C484        C485   1.410       .  A
C485        C486   1.415       .  A
C485        N492   1.437       .  S
C486        C487   1.410       .  A
C486        H491   1.083       .  S
C487        C488   1.411       .  A
C488        N489   1.433       .  S
N489        H493   1.046       .  S
N489        H494   1.046       .  S
N492        H495   1.046       .  S
N492        H496   1.045       .  S
C497        C498   1.409       .  A
C497        C502   1.403       .  A
C497        H504   1.084       .  S
C498        C499   1.416       .  A
C499        C500   1.400       .  A
C499        N506   1.439       .  S
C500        C501   1.406       .  A
C500        H505   1.084       .  S
C501        C502   1.406       .  A
C502        N503   1.432       .  S
N503        H507   1.046       .  S
N503        H508   1.045       .  S
N506        H509   1.046       .  S
N506        H510   1.042       .  S
C511        C512   1.401       .  A
C511        C516   1.406       .  A
C511        H518   1.084       .  S
C512       C1953   1.407       .  A
C513        C514   1.400       .  A
C513       C1952   1.408       .  A
C513        N520   1.427       .  S
C514       C1955   1.398       .  A
C514        H519   1.084       .  S
C515        C516   1.411       .  A
C515       C1954   1.398       .  A
C516        N517   1.436       .  S
N517        H521   1.046       .  S
N517        H522   1.046       .  S
N520        H523   1.048       .  S
N520        H524   1.043       .  S
C525        C526   1.401   1_554  A
C525        C530   1.401       .  A
C525        H532   1.084       .  S
C526        C527   1.411       .  A
C527        C528   1.402       .  A
C527        N534   1.437       .  S
C528        C529   1.401   1_556  A
C528        H533   1.084       .  S
C529        C530   1.411       .  A
C530        N531   1.432       .  S
N531        H535   1.045       .  S
N531        H536   1.046       .  S
N534        H537   1.046       .  S
N534        H538   1.045       .  S
C539        C540   1.405       .  A
C539        C544   1.405       .  A
C539        H546   1.084       .  S
C540        C541   1.415       .  A
C541        C542   1.403       .  A
C541        N548   1.433       .  S
C542        C543   1.400       .  A
C542        H547   1.084       .  S
C543        C544   1.407       .  A
C544        N545   1.432       .  S
N545        H549   1.046       .  S
N545        H550   1.045       .  S
N548        H551   1.046       .  S
N548        H552   1.042       .  S
C553        C554   1.403       .  A
C553        C558   1.406       .  A
C553        H560   1.084       .  S
C554        C555   1.406       .  A
C555        C556   1.400       .  A
C555        N562   1.433       .  S
C556        C557   1.399       .  A
C556        H561   1.084       .  S
C557        C558   1.408       .  A
C558        N559   1.437       .  S
N559        H563   1.046       .  S
N559        H564   1.045       .  S
N562        H565   1.046       .  S
N562        H566   1.045       .  S
C567        C568   1.404       .  A
C567        C572   1.400       .  A
C567        H574   1.084       .  S
C568        C569   1.410       .  A
C569        C570   1.408   1_545  A
C569       N2016   1.437   1_545  S
C570        C571   1.407   1_565  A
C570        H575   1.084       .  S
C571        C572   1.417       .  A
C572        N573   1.432   1_655  S
N573        H577   1.045       .  S
N573        H578   1.046   1_455  S
N576       C2009   1.438       .  S
N576        H579   1.048       .  S
N576        H580   1.044       .  S
C581        C582   1.406       .  A
C581       C1306   1.407       .  A
C581        H588   1.084       .  S
C582        C583   1.403       .  A
C583        C584   1.397       .  A
C583        N590   1.426       .  S
C584       C1305   1.404       .  A
C584       H2029   1.085       .  S
C585       C1499   1.473       .  S
C585        C586   1.406       .  A
C585       C1304   1.401       .  A
C586       C1301   1.408       .  A
C586        N587   1.431       .  S
N587        H591   1.043       .  S
N587        H592   1.045       .  S
H589       C2024   1.084       .  S
N590        H593   1.045       .  S
N590        H594   1.047       .  S
C595        C596   1.403       .  A
C595        C600   1.409       .  A
C595        H602   1.084       .  S
C596        C597   1.411       .  A
C597        C598   1.398       .  A
C597        N604   1.432       .  S
C598        C599   1.393       .  A
C598        H603   1.085       .  S
C599        C600   1.407       .  A
C600        N601   1.437       .  S
N601        H605   1.046       .  S
N601        H606   1.045       .  S
N604        H607   1.044       .  S
N604        H608   1.043       .  S
C609        C610   1.405       .  A
C609        C614   1.401       .  A
C609        H616   1.084       .  S
C610        C611   1.412       .  A
C611        C612   1.404       .  A
C611        N618   1.433       .  S
C612        C613   1.403       .  A
C612        H617   1.084       .  S
C613        C614   1.410       .  A
C614        N615   1.433       .  S
N615        H619   1.046       .  S
N615        H620   1.046       .  S
N618        H622   1.045       .  S
N618       H2061   1.046       .  S
H621       N2058   1.046       .  S
C623        C628   1.394   1_565  A
C623       C1344   1.403       .  A
C623        H630   1.084       .  S
C624        C625   1.409       .  A
C624       C1343   1.403       .  A
C625        C626   1.396       .  A
C625        N632   1.433       .  S
C626       C1347   1.402       .  A
C626        H631   1.084       .  S
C627        C628   1.415   1_565  A
C627       C1346   1.406       .  A
C628        N629   1.432       .  S
N629        H633   1.044       .  S
N629        H634   1.046       .  S
N632        H635   1.044       .  S
N632        H636   1.046       .  S
C637        C638   1.400       .  A
C637        C642   1.392       .  A
C637        H644   1.084       .  S
C638        C639   1.405       .  A
C639        C640   1.403       .  A
C639        N646   1.433       .  S
C640        C641   1.408       .  A
C640        H645   1.084       .  S
C641        C642   1.409       .  A
C642        N643   1.438       .  S
N643        H647   1.048       .  S
N643        H648   1.043       .  S
N646        H649   1.045       .  S
N646        H650   1.046       .  S
C651        C652   1.403       .  A
C651        C656   1.398       .  A
C651        H658   1.084       .  S
C652       C1373   1.410       .  A
C653        C654   1.396       .  A
C653       C1372   1.404       .  A
C653        N660   1.432       .  S
C654       C1375   1.401       .  A
C654        H659   1.082       .  S
C655        C656   1.407       .  A
C655       C1374   1.404   1_545  A
C656        N657   1.432       .  S
N657        H661   1.045       .  S
N657        H662   1.046       .  S
N660        H663   1.045       .  S
N660        H664   1.047       .  S
C665        C666   1.401       .  A
C665        C670   1.400       .  A
C665       H1392   1.083       .  S
C666        C667   1.413       .  A
C667        C668   1.403       .  A
C667        N674   1.437       .  S
C668        C669   1.398       .  A
C668        H673   1.084       .  S
C669        C670   1.410       .  A
C670       N1391   1.435       .  S
N671       C1390   1.438       .  S
N671        H675   1.045       .  S
N671        H676   1.046       .  S
H672       C1385   1.083       .  S
N674        H677   1.046       .  S
N674        H678   1.045       .  S
C679        C680   1.408       .  A
C679        C684   1.398       .  A
C679        H686   1.084       .  S
C680        C681   1.409       .  A
C681        C682   1.408       .  A
C681        N688   1.436       .  S
C682        C683   1.405       .  A
C682        H687   1.083       .  S
C683        C684   1.409       .  A
C684        N685   1.433       .  S
N685        H689   1.045       .  S
N685        H690   1.044       .  S
N688        H691   1.045       .  S
N688        H692   1.046       .  S
C693        C694   1.402       .  A
C693        C698   1.401       .  A
C693        H700   1.084       .  S
C694        C695   1.417       .  A
C695        C696   1.404       .  A
C695        N702   1.439       .  S
C696        C697   1.403       .  A
C696        H701   1.084       .  S
C697        C698   1.411       .  A
C698        N699   1.433       .  S
N699        H703   1.045       .  S
N699        H704   1.046       .  S
N702        H705   1.045       .  S
N702        H706   1.046       .  S
C707        C708   1.411       .  A
C707        C712   1.419       .  A
C707        H714   1.083       .  S
C708        C709   1.412       .  A
C709        C710   1.388       .  A
C709        N716   1.430       .  S
C710        C711   1.396       .  A
C710        H715   1.081       .  S
C711        C712   1.410       .  A
C712        N713   1.435       .  S
N713        H717   1.046       .  S
N713        H718   1.045       .  S
N716        H719   1.038       .  S
N716        H720   1.043       .  S
In721       O723   2.224       .  S
In721       O724   2.231       .  S
In721       O732   2.230       .  S
In721       O726   2.225       .  S
In721       O728   2.298       .  S
In721       O729   2.230       .  S
In721       O730   2.194       .  S
In721       O733   2.229       .  S
C722        O728   1.268       .  A
C722        O730   1.256       .  A
C722       C1431   1.481       .  S
O723        C731   1.262       .  A
O724        C731   1.260       .  A
C725        O732   1.262       .  A
C725        O726   1.267       .  A
C725       C1400   1.469       .  S
C727        O729   1.264       .  A
C727        O733   1.262       .  A
C727       C1417   1.479       .  S
C731       C1160   1.453       .  S
In734       O736   2.209       .  S
In734       O737   2.235       .  S
In734       O745   2.199       .  S
In734       O739   2.236       .  S
In734       O741   2.199       .  S
In734       O742   2.232       .  S
In734       O743   2.259       .  S
In734       O746   2.237       .  S
C735        O741   1.258       .  A
C735        O743   1.266       .  A
C735       C1414   1.463       .  S
O736        C744   1.261       .  A
O737        C744   1.263       .  A
C738        O745   1.265       .  A
C738        O739   1.263       .  A
C738       C1372   1.463       .  S
C740        O742   1.262       .  A
C740        O746   1.266       .  A
C740       C1386   1.483       .  S
C744       C1082   1.453       .  S
In747       O749   2.220       .  S
In747       O750   2.247       .  S
In747       O758   2.249       .  S
In747       O752   2.200       .  S
In747       O754   2.251       .  S
In747       O755   2.253       .  S
In747       O756   2.211       .  S
In747       O759   2.226       .  S
C748        O754   1.265       .  A
C748        O756   1.258       .  A
C748       C1389   1.470       .  S
O749        C757   1.260       .  A
O750        C757   1.264       .  A
C751        O758   1.267       .  A
C751        O752   1.265       .  A
C751       C1358   1.471       .  S
C753        O755   1.270       .  A
C753        O759   1.258       .  A
C753       C1428   1.481       .  S
C757       C1121   1.460       .  S
In760       O762   2.249       .  S
In760       O763   2.204       .  S
In760       O771   2.267       .  S
In760       O765   2.193       .  S
In760       O767   2.244       .  S
In760       O768   2.193       .  S
In760       O769   2.254       .  S
In760       O772   2.233       .  S
C761       O2207   1.259       .  A
C761       O2209   1.253       .  A
C761       C1330   1.478       .  S
O762        C770   1.265       .  A
O763        C770   1.254       .  A
C764        O771   1.262       .  A
C764        O765   1.258       .  A
C764       C1319   1.466       .  S
C766        O768   1.262       .  A
C766        O772   1.265       .  A
C766       C1344   1.471       .  S
O767       C2201   1.258       .  A
O769       C2201   1.257       .  A
C770        C965   1.452       .  S
In773       O775   2.234       .  S
In773       O776   2.222       .  S
In773       O784   2.244       .  S
In773       O778   2.225       .  S
In773       O780   2.213       .  S
In773       O781   2.271   1_455  S
In773       O782   2.227       .  S
In773       O785   2.189   1_455  S
C774        O780   1.260       .  A
C774        O782   1.260       .  A
C774       C1347   1.468       .  S
O775        C783   1.259       .  A
O776        C783   1.262       .  A
C777        O784   1.266       .  A
C777        O778   1.262       .  A
C777       C1291   1.484   1_455  S
C779        O781   1.266       .  A
C779        O785   1.259       .  A
C779       C2745   1.471       .  S
C783       C1043   1.461       .  S
In786       O788   2.241       .  S
In786       O789   2.189       .  S
In786       O797   2.276       .  S
In786       O791   2.166       .  S
In786       O793   2.223       .  S
In786       O794   2.220       .  S
In786       O795   2.276       .  S
In786       O798   2.223       .  S
C787        O793   1.258       .  A
C787        O795   1.263       .  A
C787       C1302   1.473       .  S
O788        C796   1.268       .  A
O789        C796   1.259       .  A
C790        O797   1.273       .  A
C790        O791   1.259       .  A
C790       C1274   1.464       .  S
C792        O794   1.268       .  A
C792        O798   1.270       .  A
C792       C1333   1.481       .  S
C796       C1004   1.449       .  S
In799       O801   2.228       .  S
In799       O802   2.238   1_455  S
In799       O810   2.237   1_455  S
In799       O804   2.260   1_455  S
In799       O806   2.251       .  S
In799       O807   2.246       .  S
In799       O808   2.241       .  S
In799       O811   2.215       .  S
C800        O806   1.262       .  A
C800        O808   1.261       .  A
C800       C1260   1.485       .  S
O801       C2249   1.255       .  A
O802       C2249   1.264   1_655  A
C803        O810   1.260       .  A
C803        O804   1.258       .  A
C803       C1235   1.474       .  S
C805        O807   1.264       .  A
C805        O811   1.262       .  A
C805       C1246   1.479       .  S
C809       O2241   1.259       .  A
C809       O2242   1.263       .  A
C809       C2327   1.467       .  S
In812       O814   2.221       .  S
In812       O815   2.239   1_556  S
In812       O823   2.251       .  S
In812       O817   2.211       .  S
In812       O819   2.274       .  S
In812       O820   2.264   1_556  S
In812       O821   2.217       .  S
In812       O824   2.209   1_556  S
C813        O819   1.261       .  A
C813        O821   1.256       .  A
C813       C1249   1.478       .  S
O814        C822   1.256   1_556  A
O815        C822   1.259       .  A
C816        O823   1.265       .  A
C816        O817   1.261       .  A
C816       C1204   1.478       .  S
C818        O820   1.265       .  A
C818        O824   1.256       .  A
C818       C1221   1.477       .  S
C822        C926   1.450       .  S
In825       O827   2.230       .  S
In825       O828   2.211       .  S
In825       O836   2.234       .  S
In825       O830   2.163       .  S
In825       O832   2.161       .  S
In825       O833   2.215       .  S
In825       O834   2.242       .  S
In825       O837   2.234       .  S
C826        O832   1.264       .  A
C826        O834   1.275       .  A
C826       C1218   1.461   1_556  S
O827        C835   1.273       .  A
O828        C835   1.268       .  A
C829        O836   1.275       .  A
C829        O830   1.268       .  A
C829       C1193   1.462       .  S
C831        O833   1.270       .  A
C831        O837   1.274       .  A
C831       C1263   1.486       .  S
C835        C848   1.461       .  S
In838       O840   2.245   1_554  S
In838       O841   2.247   1_554  S
In838       O849   2.272       .  S
In838       O843   2.326       .  S
In838       O845   2.282       .  S
In838       O846   2.269   1_554  S
In838       O847   2.290   1_554  S
In838       O850   2.242       .  S
C839        O845   1.267       .  A
C839        O847   1.260   1_554  A
C839       C1177   1.493       .  S
O840        C848   1.260       .  A
O841        C848   1.262       .  A
C842        O849   1.257       .  A
C842        O843   1.267       .  A
C842        C861   1.499       .  S
C844        O846   1.260       .  A
C844        O850   1.257   1_556  A
C844       C1125   1.465       .  S
In851       O853   2.304       .  S
In851       O854   2.267       .  S
In851       O856   2.331       .  S
In851       O858   2.287       .  S
In851       O860   2.260       .  S
C852        O858   1.259       .  A
C852        O860   1.254       .  A
C852       C1000   1.474       .  S
O853        C861   1.268       .  A
O854        C861   1.265       .  A
C855        O862   1.256       .  A
C857        O859   1.257       .  A
C857        O863   1.254       .  A
C857        C904   1.462       .  S
In864       O867   2.186       .  S
In864       O875   2.224       .  S
In864       O871   2.269       .  S
In864       O872   2.198       .  S
In864       O873   2.285       .  S
In864       O876   2.195       .  S
C865        O871   1.279       .  A
C865        O873   1.276       .  A
C865       C1034   1.509       .  S
O867        C874   1.275       .  A
C868        O869   1.278   1_545  A
C870        O872   1.276       .  A
C870        O876   1.277       .  A
C870        C935   1.460       .  S
C874       C1375   1.462       .  S
In877      O2319   2.248   1_554  S
In877      O2320   2.243   1_554  S
In877       O888   2.290       .  S
In877       O882   2.285       .  S
In877      O2324   2.278       .  S
In877       O885   2.243   1_554  S
In877      O2326   2.290   1_554  S
In877       O889   2.264       .  S
C878        O884   1.264       .  A
C878        O886   1.262   1_554  A
C878       C1104   1.486   1_554  S
O879      In2317   2.237   1_456  S
O879        C887   1.266   1_455  A
O880      In2317   2.216   1_556  S
O880        C887   1.258       .  A
C881        O888   1.262       .  A
C881        O882   1.262       .  A
C881        C896   1.491       .  S
C883        O885   1.261       .  A
C883        O889   1.263   1_556  A
C883       C1164   1.471       .  S
O884      In2317   2.268   1_455  S
O886      In2317   2.285   1_456  S
C887       C2249   1.453   1_655  S
In890       O892   2.268       .  S
In890       O893   2.300       .  S
In890       O901   2.322       .  S
In890       O895   2.255       .  S
In890       O897   2.238       .  S
In890       O898   2.282       .  S
In890       O899   2.241       .  S
In890       O902   2.285       .  S
C891        O897   1.259       .  A
C891        O899   1.258       .  A
C891        C943   1.451       .  S
O892        C900   1.253       .  A
O893        C900   1.260       .  A
C894        O901   1.265       .  A
C894        O895   1.254       .  A
C894        C913   1.489       .  S
C896        O898   1.263       .  A
C896        O902   1.263       .  A
C900       C2401   1.480       .  S
In903       O905   2.224       .  S
In903       O906   2.279       .  S
In903       O914   2.221       .  S
In903       O908   2.163       .  S
In903       O910   2.167       .  S
In903       O911   2.230       .  S
In903       O912   2.235       .  S
In903       O915   2.257       .  S
C904        O910   1.271       .  A
C904        O912   1.280       .  A
O905        C913   1.272       .  A
O906        C913   1.276       .  A
C907        O914   1.277       .  A
C907        O908   1.274       .  A
C907       C1361   1.462       .  S
C909        O911   1.278       .  A
C909        O915   1.278       .  A
In916       O918   2.227       .  S
In916       O919   2.217       .  S
In916       O927   2.280       .  S
In916       O921   2.297       .  S
In916       O923   2.307       .  S
In916       O924   2.249       .  S
In916       O925   2.304       .  S
In916       O928   2.222       .  S
C917        O923   1.269       .  A
C917        O925   1.258       .  A
C917       C1143   1.503       .  S
O918        C926   1.263       .  A
O919        C926   1.262       .  A
C920        O927   1.259       .  A
C920        O921   1.266       .  A
C920        C939   1.492       .  S
C922        O924   1.263       .  A
C922        O928   1.263       .  A
C922       C1095   1.461   1_554  S
In929       O931   2.271       .  S
In929       O932   2.273       .  S
In929       O940   2.276       .  S
In929       O934   2.323       .  S
In929       O936   2.210       .  S
In929       O937   2.255       .  S
In929       O938   2.281       .  S
In929       O941   2.272       .  S
C930        O936   1.255       .  A
C930        O938   1.261       .  A
C930       C1039   1.455       .  S
O931        C939   1.266       .  A
O932        C939   1.268       .  A
C933        O940   1.254       .  A
C933        O934   1.266       .  A
C933        C952   1.497       .  S
C935        O937   1.252       .  A
C935        O941   1.256       .  A
In942       O944   2.255       .  S
In942       O945   2.274       .  S
In942       O953   2.226       .  S
In942       O947   2.150       .  S
In942       O949   2.176       .  S
In942       O950   2.249       .  S
In942       O951   2.196       .  S
In942       O954   2.302       .  S
C943        O949   1.272       .  A
C943        O951   1.277       .  A
O944        C952   1.276       .  A
O945        C952   1.273       .  A
C946        O953   1.276       .  A
C946        O947   1.272       .  A
C946       C1403   1.462       .  S
C948        O950   1.271       .  A
C948        O954   1.280       .  A
C948        C956   1.503       .  S
In955       O957   2.218       .  S
In955       O958   2.230       .  S
In955       O966   2.280       .  S
In955       O960   2.307       .  S
In955      O2402   2.339   1_455  S
In955       O963   2.235       .  S
In955      O2404   2.261   1_455  S
In955      O2407   2.255   1_455  S
C956        O962   1.268       .  A
C956        O964   1.263       .  A
O957        C965   1.265       .  A
O958        C965   1.260       .  A
C959        O966   1.261       .  A
C959        O960   1.265       .  A
C959        C978   1.500       .  S
C961        O963   1.259       .  A
C961       O2407   1.266   1_455  A
C961       C2340   1.467   1_455  S
O962      In2395   2.319       .  S
O964      In2395   2.273       .  S
O967      In2395   2.267       .  S
O967       C2401   1.263       .  A
In968       O970   2.303       .  S
In968       O971   2.289       .  S
In968       O979   2.255       .  S
In968       O973   2.330       .  S
In968       O975   2.241       .  S
In968       O976   2.264       .  S
In968       O977   2.259       .  S
In968       O980   2.221       .  S
C969        O975   1.255       .  A
C969        O977   1.261       .  A
C969       C1156   1.456       .  S
O970        C978   1.263       .  A
O971        C978   1.266       .  A
C972        O979   1.253       .  A
C972        O973   1.263       .  A
C972        C991   1.491       .  S
C974        O976   1.259       .  A
C974        O980   1.257       .  A
C974       C1065   1.451       .  S
In981       O983   2.217       .  S
In981       O984   2.288       .  S
In981       O992   2.226       .  S
In981       O986   2.169       .  S
In981       O988   2.183       .  S
In981       O989   2.238       .  S
In981       O990   2.203       .  S
In981       O993   2.262       .  S
C982        O988   1.274       .  A
C982        O990   1.279       .  A
C982       C1008   1.455       .  S
O983        C991   1.272       .  A
O984        C991   1.278       .  A
C985        O992   1.275       .  A
C985        O986   1.274       .  A
C985       C1190   1.463       .  S
C987        O989   1.279       .  A
C987        O993   1.277       .  A
C987       C1112   1.490       .  S
In994       O996   2.234       .  S
In994       O997   2.214       .  S
In994      O1005   2.289       .  S
In994       O999   2.305       .  S
In994      O1001   2.267       .  S
In994      O1002   2.265       .  S
In994      O1003   2.263       .  S
In994      O1006   2.252       .  S
C995       O1001   1.270   1_545  A
C995       O1003   1.260   1_545  A
O996       C1004   1.258       .  A
O997       C1004   1.261       .  A
C998       O1005   1.260       .  A
C998        O999   1.264       .  A
C998       C1013   1.499       .  S
C1000      O1002   1.263       .  A
C1000      O1006   1.263       .  A
In1007     O1009   2.247       .  S
In1007     O1010   2.288       .  S
In1007     O1018   2.341       .  S
In1007     O1012   2.258       .  S
In1007     O1014   2.250       .  S
In1007     O1015   2.303       .  S
In1007     O1016   2.250       .  S
In1007     O1019   2.280       .  S
C1008      O1014   1.257       .  A
C1008      O1016   1.255       .  A
O1009      C1017   1.256       .  A
O1010      C1017   1.262       .  A
C1011      O1018   1.266       .  A
C1011      O1012   1.260       .  A
C1011      C1030   1.504       .  S
C1013      O1015   1.266       .  A
C1013      O1019   1.262       .  A
C1017      C1117   1.474       .  S
In1020     O1022   2.232       .  S
In1020     O1023   2.350       .  S
In1020     O1031   2.234       .  S
In1020     O1025   2.198       .  S
In1020     O1027   2.202       .  S
In1020     O1028   2.343       .  S
In1020     O1029   2.208       .  S
In1020     O1032   2.265       .  S
C1021      O1027   1.265       .  A
C1021      O1029   1.267       .  A
C1021      C1052   1.445       .  S
O1022      C1030   1.256       .  A
O1023      C1030   1.277       .  A
C1024      O1031   1.269       .  A
C1024      O1025   1.264       .  A
C1024      C1207   1.472       .  S
C1026      O1028   1.278       .  A
C1026      O1032   1.257       .  A
C1026      C1073   1.509       .  S
In1033     O1035   2.219       .  S
In1033     O1036   2.255       .  S
In1033     O1044   2.255       .  S
In1033     O1038   2.266       .  S
In1033     O1040   2.324       .  S
In1033     O1041   2.243       .  S
In1033     O1042   2.285       .  S
In1033     O1045   2.198       .  S
C1034      O1040   1.269       .  A
C1034      O1042   1.260       .  A
O1035      C1043   1.263       .  A
O1036      C1043   1.266       .  A
C1037      O1044   1.262       .  A
C1037      O1038   1.268       .  A
C1037      C1056   1.480       .  S
C1039      O1041   1.268       .  A
C1039      O1045   1.263       .  A
In1046     O1048   2.265       .  S
In1046     O1049   2.265       .  S
In1046     O1057   2.288       .  S
In1046     O1051   2.269       .  S
In1046     O1053   2.256       .  S
In1046     O1054   2.229       .  S
In1046     O1055   2.258       .  S
In1046     O1058   2.241       .  S
C1047      O1053   1.262       .  A
C1047      O1055   1.257       .  A
C1047      C1078   1.467       .  S
O1048      C1056   1.264       .  A
O1049      C1056   1.263       .  A
C1050      O1057   1.261       .  A
C1050      O1051   1.259       .  A
C1050      C1063   1.484       .  S
C1052      O1054   1.254       .  A
C1052      O1058   1.258       .  A
In1059     O1061   2.222   1_455  S
In1059     O1062   2.164       .  S
In1059     O1070   2.243       .  S
In1059     O1064   2.259       .  S
In1059     O2506   2.244       .  S
In1059     O1067   2.176       .  S
In1059     O2508   2.296       .  S
In1059     O1071   2.206       .  S
C1060      O1066   1.275       .  A
C1060      O1068   1.277       .  A
C1060      C1151   1.488       .  S
O1061      C1069   1.275       .  A
O1062      C1069   1.273   1_455  A
C1063      O1070   1.275       .  A
C1063      O1064   1.271       .  A
C1065      O1067   1.272       .  A
C1065      O1071   1.277       .  A
O1066     In2499   2.234       .  S
O1068     In2499   2.261       .  S
C1069      C1232   1.467       .  S
In1072     O1074   2.245       .  S
In1072     O1075   2.211       .  S
In1072     O1083   2.275       .  S
In1072     O1077   2.321       .  S
In1072     O1079   2.297       .  S
In1072     O1080   2.236       .  S
In1072     O1081   2.316       .  S
In1072     O1084   2.262       .  S
C1073      O1079   1.268       .  A
C1073      O1081   1.261       .  A
O1074      C1082   1.265       .  A
O1075      C1082   1.258       .  A
C1076      O1083   1.258       .  A
C1076      O1077   1.265       .  A
C1076      C1091   1.499       .  S
C1078      O1080   1.259       .  A
C1078      O1084   1.265       .  A
In1085     O1087   2.225       .  S
In1085     O1088   2.278       .  S
In1085     O1096   2.264       .  S
In1085     O1092   2.271       .  S
In1085     O1093   2.303       .  S
In1085     O1094   2.237       .  S
In1085     O1097   2.265       .  S
C1086      O1092   1.258       .  A
C1086      O1094   1.254       .  A
C1086      C1138   1.457       .  S
O1087      C1095   1.254       .  A
O1088      C1095   1.263       .  A
C1089      O1090   1.263       .  A
C1089      C1108   1.493       .  S
C1091      O1093   1.267       .  A
C1091      O1097   1.264       .  A
In1098     O1100   2.222       .  S
In1098     O1101   2.288       .  S
In1098     O1109   2.226       .  S
In1098     O1103   2.174   1_556  S
In1098     O1105   2.202       .  S
In1098     O1106   2.257       .  S
In1098     O1107   2.212       .  S
In1098     O1110   2.229   1_556  S
C1099      O1105   1.275       .  A
C1099      O1107   1.276       .  A
C1099      C2609   1.463       .  S
O1100      C1108   1.271       .  A
O1101      C1108   1.278       .  A
C1102      O1109   1.278   1_554  A
C1102      O1103   1.273       .  A
C1102      C1316   1.466       .  S
C1104      O1106   1.281       .  A
C1104      O1110   1.275   1_556  A
In1111     O1122   2.292       .  S
In1111     O1116   2.292       .  S
In1111     O1118   2.308       .  S
In1111     O1119   2.265       .  S
In1111     O1120   2.257       .  S
In1111     O1123   2.242       .  S
C1112      O1118   1.270       .  A
C1112      O1120   1.258       .  A
O1113      C1121   1.265       .  A
O1114      C1121   1.260       .  A
C1115      O1122   1.261       .  A
C1115      O1116   1.263       .  A
C1115      C1134   1.494       .  S
C1117      O1119   1.264       .  A
C1117      O1123   1.262       .  A
In1124     O1127   2.278       .  S
In1124     O1131   2.242       .  S
In1124     O1132   2.265       .  S
In1124     O1133   2.278       .  S
In1124     O1136   2.232       .  S
C1125      O1131   1.254       .  A
C1125      O1133   1.258       .  A
O1127      C1134   1.266       .  A
C1128      O1135   1.260       .  A
C1128      O1129   1.263       .  A
C1128      C2587   1.494       .  S
C1130      O1132   1.257       .  A
C1130      O1136   1.254       .  A
C1130      C1182   1.454       .  S
In1137     O1139   2.241   1_554  S
In1137     O1140   2.325   1_554  S
In1137     O1148   2.232       .  S
In1137     O1142   2.237       .  S
In1137     O1144   2.232   1_554  S
In1137     O1145   2.316       .  S
In1137     O1146   2.208   1_554  S
In1137     O1149   2.263       .  S
C1138      O1144   1.269       .  A
C1138      O1146   1.265       .  A
O1139      C1147   1.260   1_455  A
O1140      C1147   1.274   1_455  A
C1141      O1148   1.268       .  A
C1141      O1142   1.267       .  A
C1141      C1288   1.487   1_455  S
C1143      O1145   1.277       .  A
C1143      O1149   1.260       .  A
C1147      C2568   1.495       .  S
In1150     O1152   2.239       .  S
In1150     O1153   2.225       .  S
In1150     O1161   2.262       .  S
In1150     O1155   2.272       .  S
In1150     O1157   2.300       .  S
In1150     O2598   2.238       .  S
In1150     O1159   2.259       .  S
In1150     O2602   2.241       .  S
C1151      O1157   1.263       .  A
C1151      O1159   1.258       .  A
O1152      C1160   1.264       .  A
O1153      C1160   1.258       .  A
C1154      O1161   1.258       .  A
C1154      O1155   1.259       .  A
C1154      C1173   1.474       .  S
C1156      O1158   1.256       .  A
C1156      O1162   1.264       .  A
O1158     In2590   2.228   1_455  S
O1162     In2590   2.249   1_455  S
In1163     O1165   2.264       .  S
In1163     O1166   2.253       .  S
In1163     O1174   2.331       .  S
In1163     O1168   2.239       .  S
In1163     O1170   2.259       .  S
In1163     O2611   2.262       .  S
In1163     O1172   2.274       .  S
In1163     O1175   2.252       .  S
C1164      O1170   1.257       .  A
C1164      O1172   1.260       .  A
O1165      C1173   1.263       .  A
O1166      C1173   1.262       .  A
C1167      O1174   1.261       .  A
C1167      O1168   1.253       .  A
C1167      C1180   1.483       .  S
C1169      O2611   1.259       .  A
C1169      O1175   1.260       .  A
C1169      C2539   1.465       .  S
O1171     In2603   2.261       .  S
O1171      C2609   1.259   1_655  A
In1176     O1178   2.236   1_556  S
In1176     O1179   2.194   1_556  S
In1176     O1187   2.190       .  S
In1176     O1181   2.310       .  S
In1176     O1183   2.288       .  S
In1176     O1184   2.194       .  S
In1176     O1185   2.234   1_556  S
In1176     O1188   2.223       .  S
C1177      O1183   1.281   1_554  A
C1177      O1185   1.266       .  A
O1178      C1186   1.270       .  A
O1179      C1186   1.268       .  A
C1180      O1187   1.261       .  A
C1180      O1181   1.279       .  A
C1182      O1184   1.270       .  A
C1182      O1188   1.271       .  A
C1186      C1277   1.468       .  S
C1189      C1190   1.400       .  A
C1189      C1194   1.402       .  A
C1189      H1196   1.084       .  S
C1190      C1191   1.406       .  A
C1191      C1192   1.402       .  A
C1191      N1198   1.433       .  S
C1192      C1193   1.402       .  A
C1192      H1197   1.084       .  S
C1193      C1194   1.407       .  A
C1194      N1195   1.433       .  S
N1195      H1199   1.046       .  S
N1195      H1200   1.045       .  S
N1198      H1201   1.047       .  S
N1198      H1202   1.044   1_565  S
C1203      C1204   1.404       .  A
C1203      C1208   1.397       .  A
C1203      H1210   1.084       .  S
C1204      C1205   1.413       .  A
C1205      C1206   1.406       .  A
C1205      N1212   1.437       .  S
C1206      C1207   1.403       .  A
C1206      H1211   1.084       .  S
C1207      C1208   1.407       .  A
C1208      N1209   1.433       .  S
N1209      H1213   1.046       .  S
N1209      H1214   1.046       .  S
N1212      H1215   1.045       .  S
N1212      H1216   1.046       .  S
C1217      C1218   1.404       .  A
C1217      C1222   1.404       .  A
C1217      H1224   1.085       .  S
C1218      C1219   1.409       .  A
C1219      C1220   1.396       .  A
C1219      N1226   1.434       .  S
C1220      C1221   1.407       .  A
C1220      H1225   1.084       .  S
C1221      C1222   1.407       .  A
C1222      N1223   1.432       .  S
N1223      H1227   1.045       .  S
N1223      H1228   1.046       .  S
N1226      H1229   1.044       .  S
N1226      H1230   1.046   1_554  S
C1231      C1232   1.403       .  A
C1231      C1236   1.407       .  A
C1231      H1238   1.084       .  S
C1232      C2673   1.405       .  A
C1233      C2672   1.405       .  A
C1233      C1234   1.405       .  A
C1233      N1240   1.431       .  S
C1234      C2675   1.404       .  A
C1234      H1239   1.084       .  S
C1235      C2674   1.403       .  A
C1235      C1236   1.412       .  A
C1236      N1237   1.437       .  S
N1237      H1241   1.045       .  S
N1237      H1242   1.046       .  S
N1240      H1243   1.045       .  S
N1240      H1244   1.046       .  S
C1245      C1246   1.403       .  A
C1245      C1250   1.401       .  A
C1245      H1252   1.084       .  S
C1246      C1247   1.413       .  A
C1247      C1248   1.406       .  A
C1247      N1254   1.437       .  S
C1248      C1249   1.402       .  A
C1248      H1253   1.083       .  S
C1249      C1250   1.410       .  A
C1250      N1251   1.433       .  S
N1251      H1255   1.046       .  S
N1251      H1256   1.045   1_556  S
N1254      H1257   1.046       .  S
N1254      H1258   1.045       .  S
C1259      C1260   1.405       .  A
C1259      C1264   1.405       .  A
C1259      H1266   1.084       .  S
C1260      C1261   1.412       .  A
C1261      C1262   1.405       .  A
C1261      N1268   1.432       .  S
C1262      C1263   1.404       .  A
C1262      H1267   1.084       .  S
C1263      C1264   1.412       .  A
C1264      N1265   1.432       .  S
N1265      H1269   1.045       .  S
N1265      H1270   1.046       .  S
N1268      H1271   1.046       .  S
N1268      H1272   1.045       .  S
C1273      C1274   1.403       .  A
C1273      C1278   1.408       .  A
C1273      H1280   1.084       .  S
C1274      C1275   1.406       .  A
C1275      C1276   1.401       .  A
C1275      N1282   1.433       .  S
C1276      C1277   1.400       .  A
C1276      H1281   1.084       .  S
C1277      C1278   1.409       .  A
C1278      N1279   1.438       .  S
N1279      H1283   1.045       .  S
N1279      H1284   1.046       .  S
N1282      H1285   1.046       .  S
N1282      H1286   1.045       .  S
C1287      C1288   1.405       .  A
C1287      C1292   1.398       .  A
C1287      H1294   1.084       .  S
C1288      C1289   1.414       .  A
C1289      C1290   1.408       .  A
C1289      N2736   1.438       .  S
C1290      C1291   1.407       .  A
C1290      H1295   1.084       .  S
C1291      C1292   1.415       .  A
C1292      N1293   1.432       .  S
N1293      H1297   1.045   1_655  S
N1293      H1298   1.046       .  S
N1296      C2729   1.437       .  S
N1296      H1299   1.045       .  S
N1296      H1300   1.046       .  S
C1301      C1302   1.407       .  A
C1301      H1308   1.084       .  S
C1302      C1303   1.405       .  A
C1303      C1304   1.401       .  A
C1303      N1310   1.426       .  S
C1304      H2749   1.084       .  S
C1305      C2219   1.478       .  S
C1305      C1306   1.407       .  A
C1306      N1307   1.431       .  S
N1307      H1311   1.045       .  S
N1307      H1312   1.046       .  S
H1309      C2744   1.085       .  S
N1310      H1313   1.046       .  S
N1310      H1314   1.044       .  S
C1315      C1316   1.403       .  A
C1315      C1320   1.409       .  A
C1315      H1322   1.084       .  S
C1316      C1317   1.407       .  A
C1317      C1318   1.397       .  A
C1317      N1324   1.432       .  S
C1318      C1319   1.398       .  A
C1318      H1323   1.085       .  S
C1319      C1320   1.410       .  A
C1320      N1321   1.437       .  S
N1321      H1325   1.047       .  S
N1321      H1326   1.045       .  S
N1324      H1327   1.044       .  S
N1324      H1328   1.044       .  S
C1329      C1330   1.405       .  A
C1329      C1334   1.403       .  A
C1329      H1336   1.084       .  S
C1330      C1331   1.411       .  A
C1331      C1332   1.402       .  A
C1331      N1338   1.433       .  S
C1332      C1333   1.403       .  A
C1332      H1337   1.080       .  S
C1333      C1334   1.411       .  A
C1334      N1335   1.432       .  S
N1335      H1339   1.045       .  S
N1335      H1340   1.046       .  S
N1338      H2781   1.046       .  S
N1338      H1342   1.046       .  S
H1341      N2778   1.046       .  S
C1343      C1348   1.393       .  A
C1343      H1350   1.084       .  S
C1344      C1345   1.409       .  A
C1345      C1346   1.403       .  A
C1345      N1352   1.433       .  S
C1346      H1351   1.084       .  S
C1347      C1348   1.414       .  A
C1348      N1349   1.434       .  S
N1349      H1353   1.042       .  S
N1349      H1354   1.046       .  S
N1352      H1355   1.046       .  S
N1352      H1356   1.046       .  S
C1357      C1358   1.402       .  A
C1357      C1362   1.401       .  A
C1357      H1364   1.084       .  S
C1358      C1359   1.408       .  A
C1359      C1360   1.403       .  A
C1359      N1366   1.432       .  S
C1360      C1361   1.400       .  A
C1360      H1365   1.084       .  S
C1361      C1362   1.407       .  A
C1362      N1363   1.432       .  S
N1363      H1367   1.044       .  S
N1363      H1368   1.044       .  S
N1366      H1369   1.044       .  S
N1366      H1370   1.046       .  S
C1371      C1372   1.405       .  A
C1371      C1376   1.402       .  A
C1371      H1378   1.085       .  S
C1373      C1374   1.405   1_545  A
C1373      N1380   1.432   1_545  S
C1374      H1379   1.084       .  S
C1375      C1376   1.405       .  A
C1376      N1377   1.432       .  S
N1377      H1381   1.045       .  S
N1377      H1382   1.046       .  S
N1380      H1383   1.046       .  S
N1380      H1384   1.045   1_565  S
C1385      C1386   1.408       .  A
C1385      C1390   1.405       .  A
C1386      C1387   1.412       .  A
C1387      C1388   1.403       .  A
C1387      N1394   1.438       .  S
C1388      C1389   1.403       .  A
C1388      H1393   1.084       .  S
C1389      C1390   1.406       .  A
N1391      H1395   1.044       .  S
N1391      H1396   1.047       .  S
N1394      H1397   1.046       .  S
N1394      H1398   1.046       .  S
C1399      C1400   1.406       .  A
C1399      C1404   1.402       .  A
C1399      H1406   1.084       .  S
C1400      C1401   1.407       .  A
C1401      C1402   1.403       .  A
C1401      N1408   1.432       .  S
C1402      C1403   1.403       .  A
C1402      H1407   1.084       .  S
C1403      C1404   1.410       .  A
C1404      N1405   1.435       .  S
N1405      H1409   1.047       .  S
N1405      H1410   1.045       .  S
N1408      H1411   1.049       .  S
N1408      H1412   1.036       .  S
C1413      C1414   1.396       .  A
C1413      C1418   1.401       .  A
C1413      H1420   1.084       .  S
C1414      C1415   1.409       .  A
C1415      C1416   1.402       .  A
C1415      N1422   1.438       .  S
C1416      C1417   1.404       .  A
C1416      H1421   1.084       .  S
C1417      C1418   1.414       .  A
C1418      N1419   1.432       .  S
N1419      H1423   1.045       .  S
N1419      H1424   1.046       .  S
N1422      H1425   1.045       .  S
N1422      H1426   1.046       .  S
C1427      C1428   1.396       .  A
C1427      C1432   1.397       .  A
C1427      H1434   1.084       .  S
C1428      C1429   1.422       .  A
C1429      C1430   1.408       .  A
C1429      N1436   1.433       .  S
C1430      C1431   1.403       .  A
C1430      H1435   1.084       .  S
C1431      C1432   1.412       .  A
C1432      N1433   1.431       .  S
N1433      H1437   1.042       .  S
N1433      H1438   1.045       .  S
N1436      H1439   1.046       .  S
N1436      H1440   1.043       .  S
In1441     O1443   2.234       .  S
In1441     O1444   2.255       .  S
In1441     O1452   2.217       .  S
In1441     O1446   2.267       .  S
In1441     O1448   2.248       .  S
In1441     O1449   2.238       .  S
In1441     O1450   2.251       .  S
In1441     O1453   2.254       .  S
C1442      O1448   1.261       .  A
C1442      O1450   1.260       .  A
C1442      C2151   1.472       .  S
O1443      C1451   1.261       .  A
O1444      C1451   1.260       .  A
C1445      O1452   1.255       .  A
C1445      O1446   1.262       .  A
C1445      C2120   1.473       .  S
C1447      O1449   1.263       .  A
C1447      O1453   1.262       .  A
C1447      C2137   1.478       .  S
C1451      C1880   1.460       .  S
In1454     O1456   2.251       .  S
In1454     O1457   2.195       .  S
In1454     O1465   2.221       .  S
In1454     O1459   2.247       .  S
In1454     O1461   2.251       .  S
In1454     O1462   2.271       .  S
In1454     O1463   2.243       .  S
In1454     O1466   2.184       .  S
C1455      O1461   1.258       .  A
C1455      O1463   1.257       .  A
C1455      C2134   1.477       .  S
O1456      C1464   1.262       .  A
O1457      C1464   1.253       .  A
C1458      O1465   1.260       .  A
C1458      O1459   1.261       .  A
C1458      C2092   1.475       .  S
C1460      O1462   1.267       .  A
C1460      O1466   1.259       .  A
C1460      C2106   1.468       .  S
C1464      C1802   1.444       .  S
In1467     O1469   2.209       .  S
In1467     O1470   2.251       .  S
In1467     O1478   2.187       .  S
In1467     O1472   2.243       .  S
In1467     O1474   2.195       .  S
In1467     O1475   2.241       .  S
In1467     O1476   2.250       .  S
In1467     O1479   2.206       .  S
C1468      O1474   1.267       .  A
C1468      O1476   1.263       .  A
C1468      C2109   1.462       .  S
O1469      C1477   1.259       .  A
O1470      C1477   1.267       .  A
C1471      O1478   1.262       .  A
C1471      O1472   1.269       .  A
C1471      C2078   1.465       .  S
C1473      O1475   1.267       .  A
C1473      O1479   1.261       .  A
C1473      C2148   1.478       .  S
C1477      C1841   1.456       .  S
In1480     O1482   2.248       .  S
In1480     O1483   2.223       .  S
In1480     O1491   2.216       .  S
In1480     O1485   2.271       .  S
In1480     O1487   2.241       .  S
In1480     O1488   2.204       .  S
In1480     O1489   2.251       .  S
In1480     O1492   2.239       .  S
C1481      C2050   1.482       .  S
O1482      C1490   1.265       .  A
O1483      C1490   1.256       .  A
C1484      O1491   1.258       .  A
C1484      O1485   1.260       .  A
C1484      C2039   1.475       .  S
C1486      O1488   1.261       .  A
C1486      O1492   1.265       .  A
C1486      C2064   1.467       .  S
C1490      C1685   1.458       .  S
In1493     O1495   2.225       .  S
In1493     O1496   2.218       .  S
In1493     O1504   2.247       .  S
In1493     O1498   2.216   1_545  S
In1493     O1500   2.233       .  S
In1493     O1501   2.262   1_545  S
In1493     O1502   2.223   1_545  S
In1493     O1505   2.199   1_545  S
C1494      O1500   1.258       .  A
C1494      O1502   1.262   1_545  A
C1494      C2067   1.473   1_545  S
O1495      C1503   1.259       .  A
O1496      C1503   1.259       .  A
C1497      O1504   1.264       .  A
C1497      O1498   1.262   1_545  A
C1497      C2011   1.484       .  S
C1499      O1501   1.266       .  A
C1499      O1505   1.260       .  A
C1503      C1763   1.453       .  S
In1506     O1508   2.220       .  S
In1506     O1509   2.208       .  S
In1506     O1517   2.262       .  S
In1506     O1511   2.171       .  S
In1506     O1513   2.161       .  S
In1506     O1514   2.209       .  S
In1506     O1515   2.273       .  S
In1506     O1518   2.241       .  S
C1507      O1513   1.260       .  A
C1507      O1515   1.274       .  A
C1507      C2022   1.466       .  S
O1508      C1516   1.271       .  A
O1509      C1516   1.266       .  A
C1510      O1517   1.273       .  A
C1510      O1511   1.264       .  A
C1510      C1994   1.466       .  S
C1512      O1514   1.268       .  A
C1512      O1518   1.271       .  A
C1512      C2053   1.479       .  S
C1516      C1724   1.454       .  S
In1519     O1521   2.217       .  S
In1519     O1522   2.250       .  S
In1519     O1530   2.266       .  S
In1519     O1524   2.203       .  S
In1519     O1526   2.266       .  S
In1519     O1527   2.266       .  S
In1519     O1528   2.241       .  S
In1519     O1531   2.204       .  S
C1520      O1526   1.261       .  A
C1520      O1528   1.258       .  A
C1520      C1980   1.485       .  S
C1523      O1530   1.264       .  A
C1523      O1524   1.258       .  A
C1523      C1955   1.468       .  S
C1525      O1527   1.263       .  A
C1525      O1531   1.257       .  A
C1525      C1966   1.474       .  S
In1532     O1534   2.198       .  S
In1532     O1535   2.224       .  S
In1532     O1543   2.250   1_554  S
In1532     O1537   2.230   1_554  S
In1532     O1539   2.237   1_554  S
In1532     O1540   2.270       .  S
In1532     O1541   2.228       .  S
In1532     O1544   2.170       .  S
C1533      O1539   1.265   1_554  A
C1533      O1541   1.258       .  A
C1533      C1969   1.473       .  S
O1534      C1542   1.257       .  A
O1535      C1542   1.264       .  A
C1536      O1543   1.264       .  A
C1536      O1537   1.262       .  A
C1536      C1924   1.481       .  S
C1538      O1540   1.269       .  A
C1538      O1544   1.257       .  A
C1538      C1941   1.473       .  S
C1542      C1646   1.447       .  S
In1545     O1547   2.242       .  S
In1545     O1548   2.200       .  S
In1545     O1556   2.242       .  S
In1545     O1550   2.194       .  S
In1545     O1552   2.156       .  S
In1545     O1553   2.217       .  S
In1545     O1554   2.245   1_556  S
In1545     O1557   2.260       .  S
C1546      O1552   1.264   1_554  A
C1546      O1554   1.273       .  A
C1546      C1938   1.456       .  S
O1547      C1555   1.273       .  A
O1548      C1555   1.265       .  A
C1549      O1556   1.270       .  A
C1549      O1550   1.265       .  A
C1549      C1913   1.467       .  S
C1551      O1553   1.265       .  A
C1551      O1557   1.272       .  A
C1551      C1983   1.483       .  S
C1555      C1568   1.458       .  S
In1558     O1560   2.222       .  S
In1558     O1561   2.255   1_554  S
In1558     O1569   2.275       .  S
In1558     O1563   2.281       .  S
In1558     O1565   2.287       .  S
In1558     O1566   2.237   1_554  S
In1558     O1567   2.277       .  S
In1558     O1570   2.222       .  S
C1559      O1565   1.264       .  A
C1559      O1567   1.257       .  A
C1559      C1897   1.485       .  S
O1560      C1568   1.263   1_554  A
O1561      C1568   1.260       .  A
C1562      O1569   1.261       .  A
C1562      O1563   1.265       .  A
C1562      C1581   1.486       .  S
C1564      O1566   1.262   1_554  A
C1564      O1570   1.260       .  A
C1564      C1845   1.454   1_554  S
In1571     O1573   2.266       .  S
In1571     O1574   2.277       .  S
In1571     O2302   2.266       .  S
In1571     O1576   2.320       .  S
In1571     O1578   2.268       .  S
In1571     O2299   2.269       .  S
In1571     O1580   2.265       .  S
In1571     O2303   2.247       .  S
C1572      O1578   1.257       .  A
C1572      O1580   1.256       .  A
C1572      C1720   1.469       .  S
O1573      C1581   1.262       .  A
O1574      C1581   1.266       .  A
C1575      O1582   1.259       .  A
C1575      O2296   1.267       .  A
C1575      C2308   1.494       .  S
O1576      C2295   1.263       .  A
C1577      O1579   1.257   1_545  A
C1577      O1583   1.255       .  A
C1577      C1624   1.456       .  S
O1579     In2291   2.260       .  S
O1582     In2291   2.253       .  S
O1583     In2291   2.236   1_545  S
In1584     O2306   2.227   1_545  S
In1584     O1587   2.207       .  S
In1584     O1595   2.215       .  S
In1584     O2309   2.332   1_545  S
In1584     O1591   2.298       .  S
In1584     O1592   2.216       .  S
In1584     O1593   2.266       .  S
In1584     O1596   2.215       .  S
C1585      O1591   1.275       .  A
C1585      O1593   1.263       .  A
C1585      C1754   1.499       .  S
O1586     In2304   2.211       .  S
O1586      C2314   1.275       .  A
O1587      C1594   1.267       .  A
C1588      O2315   1.271       .  A
C1588      O1589   1.279       .  A
C1588      C2295   1.490       .  S
O1589     In2304   2.287       .  S
C1590      O1592   1.268       .  A
C1590      O1596   1.269       .  A
C1590      C1655   1.457       .  S
C1594      O2306   1.268   1_545  A
C1594      C2095   1.471       .  S
O1595      C2308   1.260   1_545  A
In1597     O1608   2.267   1_455  S
In1597     O1602   2.294       .  S
In1597     O1605   2.239   1_454  S
In1597     O1609   2.254   1_455  S
C1598      O1604   1.264       .  A
C1598      O1606   1.262   1_554  A
C1598      C1824   1.493   1_554  S
O1599      C1607   1.264   1_554  A
O1600      C1607   1.261       .  A
C1601      O1608   1.261       .  A
C1601      O1602   1.263   1_655  A
C1601      C1616   1.490       .  S
C1603      O1605   1.262       .  A
C1603      O1609   1.262   1_556  A
C1603      C1884   1.464       .  S
In1610     O1612   2.250       .  S
In1610     O1613   2.293   1_655  S
In1610     O1621   2.309       .  S
In1610     O1615   2.251       .  S
In1610     O1617   2.248       .  S
In1610     O1618   2.299       .  S
In1610     O1619   2.254       .  S
In1610     O1622   2.268       .  S
C1611      O1617   1.257       .  A
C1611      O1619   1.256       .  A
C1611      C1663   1.456       .  S
O1612      C1620   1.255       .  A
O1613      C1620   1.264   1_455  A
C1614      O1621   1.263       .  A
C1614      O1615   1.257       .  A
C1614      C1633   1.487       .  S
C1616      O1618   1.265       .  A
C1616      O1622   1.261       .  A
In1623     O1625   2.241       .  S
In1623     O1626   2.310       .  S
In1623     O1634   2.223       .  S
In1623     O1628   2.232       .  S
In1623     O1630   2.214       .  S
In1623     O1631   2.304       .  S
In1623     O1632   2.239       .  S
In1623     O1635   2.242       .  S
C1624      O1630   1.263       .  A
C1624      O1632   1.265       .  A
O1625      C1633   1.259       .  A
O1626      C1633   1.269       .  A
C1627      O1634   1.266       .  A
C1627      O1628   1.264       .  A
C1627      C2081   1.469       .  S
C1629      O1631   1.272       .  A
C1629      O1635   1.254       .  A
C1629      C2435   1.483   1_545  S
In1636     O1638   2.218       .  S
In1636     O1639   2.220       .  S
In1636     O1647   2.292       .  S
In1636     O1641   2.297       .  S
In1636     O1643   2.308       .  S
In1636     O1644   2.269       .  S
In1636     O1645   2.307       .  S
In1636     O1648   2.235       .  S
C1637      O1643   1.271       .  A
C1637      O1645   1.260       .  A
C1637      C1863   1.508       .  S
O1638      C1646   1.261       .  A
O1639      C1646   1.264       .  A
C1640      O1647   1.262       .  A
C1640      O1641   1.266       .  A
C1640      C1659   1.500       .  S
C1642      O1644   1.266       .  A
C1642      O1648   1.264       .  A
C1642      C1815   1.475       .  S
In1649     O1651   2.278       .  S
In1649     O1652   2.288       .  S
In1649     O1660   2.281       .  S
In1649     O1654   2.327       .  S
In1649     O1656   2.218       .  S
In1649     O1657   2.251       .  S
In1649     O1658   2.277       .  S
In1649     O1661   2.265       .  S
C1650      O1656   1.255       .  A
C1650      O1658   1.264       .  A
C1650      C1759   1.459       .  S
O1651      C1659   1.265       .  A
O1652      C1659   1.269       .  A
C1653      O1660   1.254       .  A
C1653      O1654   1.266       .  A
C1653      C1672   1.499       .  S
C1655      O1657   1.251       .  A
C1655      O1661   1.255       .  A
In1662     O1664   2.266       .  S
In1662     O1665   2.278       .  S
In1662     O1673   2.231       .  S
In1662     O1667   2.185       .  S
In1662     O1669   2.195       .  S
In1662     O1670   2.231       .  S
In1662     O1671   2.208       .  S
In1662     O1674   2.318       .  S
C1663      O1669   1.270       .  A
C1663      O1671   1.275       .  A
O1664      C1672   1.276       .  A
O1665      C1672   1.269       .  A
C1666      O1673   1.273       .  A
C1666      O1667   1.271       .  A
C1666      C2123   1.473       .  S
C1668      O1670   1.267       .  A
C1668      O1674   1.281       .  A
C1668      C1676   1.499       .  S
In1675     O1677   2.239       .  S
In1675     O1678   2.229       .  S
In1675     O1686   2.304       .  S
In1675     O1680   2.316       .  S
In1675     O1683   2.241       .  S
C1676      O1682   1.269       .  A
C1676      O1684   1.260       .  A
O1677      C1685   1.266       .  A
O1678      C1685   1.260       .  A
C1679      O1686   1.262       .  A
C1679      O1680   1.266       .  A
C1679      C1698   1.513       .  S
C1681      O1683   1.257       .  A
In1688     O1690   2.311       .  S
In1688     O1691   2.322       .  S
In1688     O1699   2.270       .  S
In1688     O1693   2.350       .  S
In1688     O1695   2.236       .  S
In1688     O1696   2.286       .  S
In1688     O1697   2.265       .  S
In1688     O1700   2.234       .  S
C1689      O1695   1.254       .  A
C1689      O1697   1.262       .  A
C1689      C1876   1.457       .  S
O1690      C1698   1.262       .  A
O1691      C1698   1.268       .  A
C1692      O1699   1.256       .  A
C1692      O1693   1.262       .  A
C1692      C1711   1.504       .  S
C1694      O1696   1.262       .  A
C1694      O1700   1.256       .  A
C1694      C1785   1.464       .  S
In1701     O1703   2.221       .  S
In1701     O1704   2.329       .  S
In1701     O1712   2.242       .  S
In1701     O1706   2.180       .  S
In1701     O1708   2.190       .  S
In1701     O1709   2.295       .  S
In1701     O1710   2.187       .  S
In1701     O1713   2.262       .  S
C1702      O1708   1.274       .  A
C1702      O1710   1.274       .  A
C1702      C1728   1.449       .  S
O1703      C1711   1.266       .  A
O1704      C1711   1.282       .  A
C1705      O1712   1.273       .  A
C1705      O1706   1.270       .  A
C1705      C1910   1.468       .  S
C1707      O1709   1.282       .  A
C1707      O1713   1.270       .  A
C1707      C1832   1.505       .  S
In1714     O1716   2.224       .  S
In1714     O1717   2.245       .  S
In1714     O1725   2.277       .  S
In1714     O1719   2.315       .  S
In1714     O1721   2.290       .  S
In1714     O1722   2.250       .  S
In1714     O1723   2.254       .  S
In1714     O1726   2.260       .  S
C1715      O1721   1.269       .  A
C1715      O1723   1.259       .  A
C1715      C2349   1.485       .  S
O1716      C1724   1.259       .  A
O1717      C1724   1.261       .  A
C1718      O1725   1.258       .  A
C1718      O1719   1.265       .  A
C1718      C1733   1.495       .  S
C1720      O1722   1.259       .  A
C1720      O1726   1.260       .  A
In1727     O1729   2.232       .  S
In1727     O1730   2.276       .  S
In1727     O1738   2.311       .  S
In1727     O1732   2.242       .  S
In1727     O1734   2.250       .  S
In1727     O1735   2.288       .  S
In1727     O1736   2.243       .  S
In1727     O1739   2.274       .  S
C1728      O1734   1.256       .  A
C1728      O1736   1.254       .  A
O1729      C1737   1.254       .  A
O1730      C1737   1.263       .  A
C1731      O1738   1.263       .  A
C1731      O1732   1.259       .  A
C1731      C1750   1.486       .  S
C1733      O1735   1.264       .  A
C1733      O1739   1.265       .  A
C1737      C1837   1.466       .  S
In1740     O1742   2.208       .  S
In1740     O1743   2.317       .  S
In1740     O1751   2.232       .  S
In1740     O1745   2.211       .  S
In1740     O1747   2.202       .  S
In1740     O1748   2.300       .  S
In1740     O1749   2.199       .  S
In1740     O1752   2.252       .  S
C1741      O1747   1.268       .  A
C1741      O1749   1.267       .  A
C1741      C1772   1.444       .  S
O1742      C1750   1.259       .  A
O1743      C1750   1.275       .  A
C1744      O1751   1.268       .  A
C1744      O1745   1.265       .  A
C1744      C1927   1.480       .  S
C1746      O1748   1.278       .  A
C1746      O1752   1.261       .  A
C1746      C1793   1.494       .  S
In1753     O1755   2.211       .  S
In1753     O1756   2.226       .  S
In1753     O1764   2.247       .  S
In1753     O1758   2.268       .  S
In1753     O1760   2.289       .  S
In1753     O1761   2.244       .  S
In1753     O1762   2.287       .  S
In1753     O1765   2.213       .  S
C1754      O1760   1.271       .  A
C1754      O1762   1.263       .  A
O1755      C1763   1.264       .  A
O1756      C1763   1.267       .  A
C1757      O1764   1.260       .  A
C1757      O1758   1.270       .  A
C1757      C1776   1.478       .  S
C1759      O1761   1.267       .  A
C1759      O1765   1.263       .  A
In1766     O1768   2.256       .  S
In1766     O1769   2.262       .  S
In1766     O1777   2.294       .  S
In1766     O1771   2.255       .  S
In1766     O1773   2.269       .  S
In1766     O1774   2.233       .  S
In1766     O1775   2.221       .  S
In1766     O1778   2.240       .  S
C1767      O1773   1.261       .  A
C1767      O1775   1.256       .  A
C1767      C1798   1.456       .  S
O1768      C1776   1.262       .  A
O1769      C1776   1.265       .  A
C1770      O1777   1.264       .  A
C1770      O1771   1.258       .  A
C1770      C1783   1.486       .  S
C1772      O1774   1.255       .  A
C1772      O1778   1.254       .  A
In1779     O1781   2.227       .  S
In1779     O1782   2.160       .  S
In1779     O1790   2.236       .  S
In1779     O1784   2.263       .  S
In1779     O1787   2.201       .  S
In1779     O1791   2.221       .  S
C1780      O1786   1.273       .  A
C1780      O1788   1.277       .  A
C1780      C1871   1.492       .  S
O1781      C1789   1.276       .  A
O1782      C1789   1.273       .  A
C1783      O1790   1.275       .  A
C1783      O1784   1.273       .  A
C1785      O1787   1.274       .  A
C1785      O1791   1.276       .  A
C1789      C1952   1.464       .  S
In1792     O1794   2.183       .  S
In1792     O1795   2.231       .  S
In1792     O1803   2.270       .  S
In1792     O1797   2.300       .  S
In1792     O1799   2.291       .  S
In1792     O1800   2.237       .  S
In1792     O1801   2.289       .  S
In1792     O1804   2.218       .  S
C1793      O1799   1.268       .  A
C1793      O1801   1.258       .  A
O1794      C1802   1.262       .  A
O1795      C1802   1.264       .  A
C1796      O1803   1.259       .  A
C1796      O1797   1.264       .  A
C1796      C1811   1.491       .  S
C1798      O1800   1.265       .  A
C1798      O1804   1.263       .  A
In1805     O1807   2.235   1_556  S
In1805     O1808   2.300       .  S
In1805     O1816   2.265       .  S
In1805     O2530   2.331   1_545  S
In1805     O1812   2.268       .  S
In1805     O1813   2.295       .  S
In1805     O1814   2.212       .  S
In1805     O1817   2.258       .  S
C1806      O1812   1.258       .  A
C1806      O1814   1.253       .  A
C1806      C1858   1.449       .  S
O1807      C1815   1.255       .  A
O1808      C1815   1.265   1_556  A
C1809      O2536   1.262       .  A
C1809      O1810   1.258       .  A
C1809      C1828   1.486       .  S
O1810     In2525   2.282       .  S
C1811      O1813   1.269       .  A
C1811      O1817   1.261       .  A
O1816      C2529   1.257   1_545  A
In1818     O1820   2.218       .  S
In1818     O1821   2.275       .  S
In1818     O1829   2.217       .  S
In1818     O1823   2.173   1_556  S
In1818     O1825   2.185       .  S
In1818     O1826   2.260       .  S
In1818     O1827   2.203       .  S
In1818     O1830   2.248   1_556  S
C1819      O1825   1.275       .  A
C1819      O1827   1.277       .  A
O1820      C1828   1.272       .  A
O1821      C1828   1.277       .  A
C1822      O1829   1.276   1_554  A
C1822      O1823   1.273       .  A
C1822      C2036   1.462       .  S
C1824      O1826   1.280       .  A
C1824      O1830   1.276   1_556  A
In1831     O2553   2.252       .  S
In1831     O2554   2.230       .  S
In1831     O1842   2.274       .  S
In1831     O1836   2.311       .  S
In1831     O1838   2.308       .  S
In1831     O1839   2.262       .  S
In1831     O1840   2.300       .  S
In1831     O1843   2.234       .  S
C1832      O1838   1.268       .  A
C1832      O1840   1.260       .  A
O1833     In2551   2.204   1_545  S
O1833      C1841   1.259       .  A
O1834     In2551   2.270   1_545  S
O1834      C1841   1.263       .  A
C1835      O1842   1.259       .  A
C1835      O1836   1.264       .  A
C1835      C1854   1.494       .  S
C1837      O1839   1.263       .  A
C1837      O1843   1.262       .  A
In1844     O2566   2.304       .  S
In1844     O1847   2.267       .  S
In1844     O2575   2.259       .  S
In1844     O2569   2.306       .  S
In1844     O1851   2.232       .  S
In1844     O1852   2.263       .  S
In1844     O1853   2.261       .  S
In1844     O1856   2.249       .  S
C1845      O1851   1.254       .  A
C1845      O1853   1.259       .  A
O1846     In2564   2.291       .  S
O1846      C2574   1.266       .  A
O1847      C1854   1.260       .  A
C1848      O1855   1.259       .  A
C1848      O1849   1.264       .  A
O1849     In2564   2.330       .  S
C1850      O1852   1.258       .  A
C1850      O1856   1.257       .  A
C1850      C1902   1.460       .  S
C1854      O2566   1.265       .  A
O1855     In2564   2.261       .  S
In1857     O1859   2.238   1_554  S
In1857     O1860   2.341   1_554  S
In1857     O1868   2.240       .  S
In1857     O1862   2.217       .  S
In1857     O1864   2.227       .  S
In1857     O1865   2.319       .  S
In1857     O1866   2.191   1_554  S
In1857     O1869   2.267       .  S
C1858      O1864   1.269   1_556  A
C1858      O1866   1.267       .  A
O1859      C1867   1.260       .  A
O1860      C1867   1.276       .  A
C1861      O1868   1.268       .  A
C1861      O1862   1.266       .  A
C1861      C2008   1.485       .  S
C1863      O1865   1.279       .  A
C1863      O1869   1.262       .  A
In1870     O1872   2.253       .  S
In1870     O1873   2.223       .  S
In1870     O1881   2.271       .  S
In1870     O1875   2.274       .  S
In1870     O1877   2.306   1_655  S
In1870     O1879   2.263       .  S
C1871      O1877   1.264       .  A
C1871      O1879   1.260   1_455  A
O1872      C1880   1.266       .  A
O1873      C1880   1.259       .  A
C1874      O1881   1.256       .  A
C1874      O1875   1.260       .  A
C1874      C1893   1.477       .  S
C1876      O1878   1.257       .  A
C1876      O1882   1.263       .  A
In1883     O1885   2.252       .  S
In1883     O1886   2.275       .  S
In1883     O1894   2.321       .  S
In1883     O1888   2.259       .  S
In1883     O1890   2.248       .  S
In1883     O1892   2.265       .  S
In1883     O1895   2.253       .  S
C1884      O1890   1.255       .  A
C1884      O1892   1.259       .  A
O1885      C1893   1.259       .  A
O1886      C1893   1.266       .  A
C1887      O1894   1.259       .  A
C1887      O1888   1.253       .  A
C1887      C1900   1.484       .  S
C1889      O1895   1.260   1_455  A
In1896     O1898   2.239   1_556  S
In1896     O1899   2.181   1_556  S
In1896     O1907   2.204       .  S
In1896     O1901   2.286       .  S
In1896     O1903   2.246       .  S
In1896     O1904   2.190       .  S
In1896     O1905   2.231   1_556  S
In1896     O1908   2.218       .  S
C1897      O1903   1.281   1_554  A
C1897      O1905   1.274       .  A
O1898      C1906   1.275       .  A
O1899      C1906   1.272       .  A
C1900      O1907   1.269       .  A
C1900      O1901   1.279       .  A
C1902      O1904   1.274       .  A
C1902      O1908   1.277       .  A
C1906      C1997   1.468       .  S
C1909      C1910   1.402       .  A
C1909      C1914   1.404       .  A
C1909      H1916   1.084       .  S
C1910      C1911   1.406       .  A
C1911      C1912   1.403       .  A
C1911      N1918   1.433       .  S
C1912      C1913   1.403       .  A
C1912      H1917   1.084       .  S
C1913      C1914   1.409       .  A
C1914      N1915   1.438       .  S
N1915      H1919   1.046       .  S
N1915      H1920   1.045       .  S
N1918      H1921   1.046       .  S
N1918      H1922   1.045       .  S
C1923      C1924   1.401       .  A
C1923      C1928   1.400       .  A
C1923      H1930   1.078       .  S
C1924      C1925   1.412       .  A
C1925      C1926   1.408       .  A
C1925      N1932   1.437       .  S
C1926      C1927   1.406       .  A
C1926      H1931   1.083       .  S
C1927      C1928   1.410       .  A
C1928      N1929   1.433       .  S
N1929      H1933   1.045       .  S
N1929      H1934   1.046       .  S
N1932      H1935   1.045       .  S
N1932      H1936   1.046       .  S
C1937      C1938   1.406       .  A
C1937      C1942   1.402       .  A
C1937      H1944   1.084       .  S
C1938      C1939   1.405       .  A
C1939      C1940   1.392       .  A
C1939      N1946   1.431       .  S
C1940      C1941   1.407       .  A
C1940      H1945   1.084       .  S
C1941      C1942   1.405       .  A
C1942      N1943   1.432       .  S
N1943      H1947   1.046       .  S
N1943      H1948   1.045       .  S
N1946      H1949   1.045       .  S
N1946      H1950   1.044       .  S
C1951      C1952   1.399       .  A
C1951      C1956   1.403       .  A
C1951      H1958   1.084       .  S
C1953      C1954   1.400       .  A
C1953      N1960   1.429       .  S
C1954      H1959   1.084       .  S
C1955      C1956   1.410       .  A
C1956      N1957   1.437       .  S
N1957      H1961   1.047       .  S
N1957      H1962   1.044       .  S
N1960      H1963   1.047       .  S
N1960      H1964   1.045       .  S
C1965      C1966   1.403   1_554  A
C1965      C1970   1.402       .  A
C1965      H1972   1.084       .  S
C1966      C1967   1.411       .  A
C1967      C1968   1.401       .  A
C1967      N1974   1.437       .  S
C1968      C1969   1.401   1_556  A
C1968      H1973   1.084       .  S
C1969      C1970   1.411       .  A
C1970      N1971   1.433       .  S
N1971      H1975   1.046       .  S
N1971      H1976   1.045       .  S
N1974      H1977   1.048       .  S
N1974      H1978   1.042       .  S
C1979      C1980   1.405       .  A
C1979      C1984   1.405       .  A
C1979      H1986   1.084       .  S
C1980      C1981   1.412       .  A
C1981      C1982   1.407       .  A
C1981      N1988   1.433       .  S
C1982      C1983   1.401       .  A
C1982      H1987   1.079       .  S
C1983      C1984   1.409       .  A
C1984      N1985   1.432       .  S
N1985      H1989   1.046       .  S
N1985      H1990   1.045       .  S
N1988      H1991   1.045       .  S
N1988      H1992   1.045       .  S
C1993      C1994   1.403       .  A
C1993      C1998   1.405       .  A
C1993      H2000   1.084       .  S
C1994      C1995   1.406       .  A
C1995      C1996   1.403       .  A
C1995      N2002   1.433       .  S
C1996      C1997   1.401       .  A
C1996      H2001   1.084       .  S
C1997      C1998   1.409       .  A
C1998      N1999   1.438       .  S
N1999      H2003   1.047       .  S
N1999      H2004   1.044       .  S
N2002      H2005   1.046       .  S
N2002      H2006   1.045       .  S
C2007      C2008   1.407       .  A
C2007      C2012   1.402       .  A
C2007      H2014   1.084       .  S
C2008      C2009   1.413   1_545  A
C2009      C2010   1.401       .  A
C2010      C2011   1.403   1_565  A
C2010      H2015   1.080       .  S
C2011      C2012   1.416       .  A
C2012      N2013   1.432       .  S
N2013      H2017   1.044       .  S
N2013      H2018   1.046       .  S
N2016      H2019   1.046       .  S
N2016      H2020   1.046       .  S
C2021      C2022   1.409       .  A
C2021      C2746   1.408       .  A
C2021      H2028   1.082       .  S
C2022      C2023   1.401       .  A
C2023      C2024   1.398       .  A
C2023      N2030   1.425       .  S
C2024      C2745   1.400       .  A
C2025      C2744   1.397       .  A
C2025      C2026   1.404       .  A
C2026      C2741   1.410       .  A
C2026      N2027   1.430       .  S
N2027      H2031   1.045       .  S
N2027      H2032   1.044       .  S
N2030      H2033   1.046       .  S
N2030      H2034   1.046       .  S
C2035      C2036   1.401       .  A
C2035      C2040   1.404       .  A
C2035      H2042   1.084       .  S
C2036      C2037   1.407       .  A
C2037      C2038   1.402       .  A
C2037      N2044   1.436       .  S
C2038      C2039   1.403       .  A
C2038      H2043   1.084       .  S
C2039      C2040   1.408       .  A
C2040      N2041   1.432       .  S
N2041      H2045   1.048       .  S
N2041      H2046   1.043       .  S
N2044      H2047   1.046       .  S
N2044      H2048   1.042       .  S
C2049      C2050   1.404   1_655  A
C2049      C2054   1.403       .  A
C2049      H2056   1.084       .  S
C2050      C2051   1.413       .  A
C2051      C2052   1.405   1_455  A
C2051      N2058   1.433       .  S
C2052      C2053   1.403       .  A
C2052      H2057   1.084       .  S
C2053      C2054   1.409       .  A
C2054      N2055   1.432       .  S
N2055      H2059   1.045       .  S
N2055      H2060   1.045       .  S
N2058      H2062   1.046       .  S
C2063      C2784   1.407       .  A
C2063      C2068   1.396   1_565  A
C2063      H2070   1.084   1_565  S
C2064      C2783   1.403       .  A
C2064      C2065   1.410       .  A
C2065      C2066   1.399       .  A
C2065      N2072   1.433       .  S
C2066      C2787   1.401       .  A
C2066      H2071   1.084       .  S
C2067      C2786   1.404       .  A
C2067      C2068   1.415   1_565  A
C2068      N2069   1.433       .  S
N2069      H2073   1.045       .  S
N2069      H2074   1.046       .  S
N2072      H2075   1.047       .  S
N2072      H2076   1.043       .  S
C2077      C2078   1.403       .  A
C2077      C2082   1.400       .  A
C2077      H2084   1.084       .  S
C2078      C2079   1.402       .  A
C2079      C2080   1.402       .  A
C2079      N2086   1.432       .  S
C2080      C2081   1.406       .  A
C2080      H2085   1.084       .  S
C2081      C2082   1.407       .  A
C2082      N2083   1.438       .  S
N2083      H2087   1.045       .  S
N2083      H2088   1.046       .  S
N2086      H2089   1.046       .  S
N2086      H2090   1.045       .  S
C2091      C2092   1.405       .  A
C2091      C2096   1.402       .  A
C2091      H2098   1.083       .  S
C2092      C2813   1.411       .  A
C2093      C2812   1.408       .  A
C2093      C2094   1.404       .  A
C2093      N2100   1.437       .  S
C2094      C2815   1.404       .  A
C2094      H2099   1.084       .  S
C2095      C2814   1.402   1_545  A
C2095      C2096   1.407       .  A
C2096      N2097   1.433       .  S
N2097      H2101   1.046       .  S
N2097      H2102   1.045       .  S
N2100      H2103   1.046       .  S
N2100      H2104   1.046       .  S
C2105      C2106   1.395       .  A
C2105      C2110   1.399       .  A
C2105      H2832   1.082       .  S
C2106      C2107   1.414       .  A
C2107      C2108   1.400       .  A
C2107      N2114   1.436       .  S
C2108      C2109   1.399       .  A
C2108      H2113   1.084       .  S
C2109      C2110   1.408       .  A
C2110      N2831   1.429       .  S
N2111      C2830   1.438       .  S
N2111      H2115   1.044       .  S
N2111      H2116   1.047       .  S
H2112      C2825   1.083       .  S
N2114      H2117   1.045       .  S
N2114      H2118   1.046       .  S
C2119      C2120   1.405       .  A
C2119      C2124   1.398       .  A
C2119      H2126   1.084       .  S
C2120      C2121   1.406       .  A
C2121      C2122   1.406       .  A
C2121      N2128   1.431       .  S
C2122      C2123   1.407       .  A
C2122      H2127   1.083       .  S
C2123      C2124   1.411       .  A
C2124      N2125   1.435       .  S
N2125      H2129   1.046       .  S
N2125      H2130   1.045       .  S
N2128      H2131   1.045       .  S
N2128      H2132   1.043       .  S
C2133      C2134   1.404       .  A
C2133      C2138   1.404       .  A
C2133      H2140   1.084       .  S
C2134      C2135   1.411       .  A
C2135      C2136   1.401       .  A
C2135      N2142   1.433       .  S
C2136      C2137   1.402       .  A
C2136      H2141   1.084       .  S
C2137      C2138   1.413       .  A
C2138      N2139   1.433       .  S
N2139      H2143   1.046       .  S
N2139      H2144   1.046       .  S
N2142      H2145   1.045       .  S
N2142      H2146   1.046       .  S
C2147      C2148   1.412       .  A
C2147      C2152   1.416       .  A
C2147      H2154   1.083       .  S
C2148      C2149   1.410       .  A
C2149      C2150   1.387       .  A
C2149      N2156   1.431       .  S
C2150      C2151   1.397       .  A
C2150      H2155   1.077       .  S
C2151      C2152   1.406       .  A
C2152      N2153   1.436       .  S
N2153      H2157   1.045       .  S
N2153      H2158   1.046   1_655  S
N2156      H2159   1.042       .  S
N2156      H2160   1.043       .  S
In2161     O2163   2.237       .  S
In2161     O2164   2.244       .  S
In2161     O2172   2.235       .  S
In2161     O2166   2.236       .  S
In2161     O2168   2.254       .  S
In2161     O2169   2.249       .  S
In2161     O2170   2.244       .  S
In2161     O2173   2.229       .  S
C2162      O2168   1.256       .  A
C2162      O2170   1.257       .  A
C2162      C2871   1.480       .  S
O2163      C2171   1.265       .  A
O2164      C2171   1.261       .  A
C2165      O2172   1.260       .  A
C2165      O2166   1.262       .  A
C2165      C2840   1.470       .  S
C2167      O2169   1.266       .  A
C2167      O2173   1.258       .  A
C2167      C2857   1.483       .  S
C2171      C2600   1.463       .  S
In2174     O2176   2.194       .  S
In2174     O2177   2.241       .  S
In2174     O2185   2.213       .  S
In2174     O2179   2.236       .  S
In2174     O2181   2.268       .  S
In2174     O2182   2.210       .  S
In2174     O2183   2.201       .  S
In2174     O2186   2.247       .  S
C2175      O2181   1.268       .  A
C2175      O2183   1.258       .  A
C2175      C2854   1.475       .  S
O2176      C2184   1.260       .  A
O2177      C2184   1.266       .  A
C2178      O2185   1.265       .  A
C2178      O2179   1.263       .  A
C2178      C2812   1.466       .  S
C2180      O2182   1.262       .  A
C2180      O2186   1.268       .  A
C2180      C2826   1.481       .  S
C2184      C2522   1.452       .  S
In2187     O2189   2.208       .  S
In2187     O2190   2.251       .  S
In2187     O2198   2.241       .  S
In2187     O2192   2.203       .  S
In2187     O2194   2.257       .  S
In2187     O2195   2.270       .  S
In2187     O2196   2.213       .  S
In2187     O2199   2.191       .  S
C2188      O2194   1.267       .  A
C2188      O2196   1.259       .  A
C2188      C2829   1.473       .  S
O2189      C2197   1.260       .  A
O2190      C2197   1.268       .  A
C2191      O2198   1.268       .  A
C2191      O2192   1.267       .  A
C2191      C2798   1.472       .  S
C2193      O2195   1.273       .  A
C2193      O2199   1.257       .  A
C2193      C2868   1.488       .  S
C2197      C2561   1.461       .  S
In2200     O2202   2.256       .  S
In2200     O2203   2.223       .  S
In2200     O2211   2.255       .  S
In2200     O2205   2.226       .  S
In2200     O2207   2.264       .  S
In2200     O2208   2.198       .  S
In2200     O2209   2.245       .  S
In2200     O2212   2.230       .  S
C2201      C2770   1.479       .  S
O2202      C2210   1.267       .  A
O2203      C2210   1.257       .  A
C2204      O2211   1.256       .  A
C2204      O2205   1.259       .  A
C2204      C2759   1.476       .  S
C2206      O2208   1.259       .  A
C2206      O2212   1.265       .  A
C2206      C2784   1.470       .  S
C2210      C2405   1.463       .  S
In2213     O2215   2.216       .  S
In2213     O2216   2.230       .  S
In2213     O2224   2.253       .  S
In2213     O2218   2.212       .  S
In2213     O2220   2.225       .  S
In2213     O2221   2.298       .  S
In2213     O2222   2.235       .  S
In2213     O2225   2.178       .  S
C2214      O2220   1.262       .  A
C2214      O2222   1.259       .  A
C2214      C2787   1.466       .  S
O2215      C2223   1.256       .  A
O2216      C2223   1.265       .  A
C2217      O2224   1.266       .  A
C2217      O2218   1.262       .  A
C2217      C2731   1.481       .  S
C2219      O2221   1.267       .  A
C2219      O2225   1.255       .  A
C2223      C2483   1.453       .  S
In2226     O2228   2.223       .  S
In2226     O2229   2.186       .  S
In2226     O2237   2.263       .  S
In2226     O2231   2.162       .  S
In2226     O2233   2.194       .  S
In2226     O2234   2.215       .  S
In2226     O2235   2.281       .  S
In2226     O2238   2.211       .  S
C2227      O2233   1.259       .  A
C2227      O2235   1.270       .  A
C2227      C2742   1.474       .  S
O2228      C2236   1.268       .  A
O2229      C2236   1.262       .  A
C2230      O2237   1.275       .  A
C2230      O2231   1.262       .  A
C2230      C2714   1.462       .  S
C2232      O2234   1.269       .  A
C2232      O2238   1.269       .  A
C2232      C2773   1.475       .  S
C2236      C2444   1.445       .  S
In2239     O2241   2.247       .  S
In2239     O2242   2.253       .  S
In2239     O2250   2.223       .  S
In2239     O2244   2.253       .  S
In2239     O2246   2.267       .  S
In2239     O2247   2.250       .  S
In2239     O2248   2.229       .  S
In2239     O2251   2.220       .  S
C2240      O2246   1.262       .  A
C2240      O2248   1.255       .  A
C2240      C2700   1.481       .  S
C2243      O2250   1.259       .  A
C2243      O2244   1.261       .  A
C2243      C2675   1.474       .  S
C2245      O2247   1.263       .  A
C2245      O2251   1.257       .  A
C2245      C2686   1.473       .  S
In2252     O2254   2.200       .  S
In2252     O2255   2.224       .  S
In2252     O2263   2.252   1_554  S
In2252     O2257   2.209   1_554  S
In2252     O2259   2.244   1_554  S
In2252     O2260   2.264       .  S
In2252     O2261   2.219       .  S
In2252     O2264   2.195       .  S
C2253      O2259   1.265       .  A
C2253      O2261   1.259   1_556  A
C2253      C2689   1.472       .  S
O2254      C2262   1.258       .  A
O2255      C2262   1.266       .  A
C2256      O2263   1.263       .  A
C2256      O2257   1.261       .  A
C2256      C2644   1.467       .  S
C2258      O2260   1.268       .  A
C2258      O2264   1.258       .  A
C2258      C2661   1.476       .  S
C2262      C2366   1.446       .  S
In2265     O2267   2.240       .  S
In2265     O2268   2.229       .  S
In2265     O2276   2.261       .  S
In2265     O2270   2.190       .  S
In2265     O2272   2.228       .  S
In2265     O2273   2.220       .  S
In2265     O2274   2.248       .  S
In2265     O2277   2.264       .  S
C2266      O2272   1.254       .  A
C2266      O2274   1.257       .  A
C2266      C2658   1.478   1_556  S
O2267      C2275   1.266       .  A
O2268      C2275   1.263       .  A
C2269      O2276   1.265       .  A
C2269      O2270   1.260       .  A
C2269      C2633   1.465       .  S
C2271      O2273   1.257       .  A
C2271      O2277   1.265       .  A
C2271      C2703   1.479       .  S
C2275      C2288   1.462       .  S
In2278     O2280   2.244       .  S
In2278     O2281   2.240   1_554  S
In2278     O2289   2.267       .  S
In2278     O2283   2.313       .  S
In2278     O2285   2.276       .  S
In2278     O2286   2.268   1_554  S
In2278     O2287   2.283   1_554  S
In2278     O2290   2.244       .  S
C2279      O2285   1.267       .  A
C2279      O2287   1.260   1_554  A
C2279      C2617   1.489       .  S
O2280      C2288   1.262   1_554  A
O2281      C2288   1.261       .  A
C2282      O2289   1.258       .  A
C2282      O2283   1.266       .  A
C2282      C2301   1.492       .  S
C2284      O2286   1.262       .  A
C2284      O2290   1.259   1_556  A
C2284      C2565   1.469       .  S
In2291     O2293   2.297       .  S
In2291     O2294   2.257       .  S
In2291     O2296   2.323       .  S
In2291     O2298   2.282       .  S
In2291     O2300   2.264       .  S
C2292      O2298   1.260       .  A
C2292      O2300   1.255       .  A
C2292      C2440   1.476       .  S
O2293      C2301   1.266       .  A
O2294      C2301   1.262       .  A
C2295      O2302   1.256       .  A
C2297      O2299   1.256       .  A
C2297      O2303   1.258       .  A
C2297      C2344   1.462       .  S
In2304     O2307   2.165       .  S
In2304     O2315   2.217       .  S
In2304     O2311   2.249       .  S
In2304     O2312   2.186       .  S
In2304     O2313   2.265       .  S
In2304     O2316   2.210       .  S
C2305      O2311   1.279       .  A
C2305      O2313   1.278       .  A
C2305      C2474   1.494       .  S
O2307      C2314   1.274       .  A
C2308      O2309   1.276       .  A
C2310      O2312   1.273       .  A
C2310      O2316   1.279       .  A
C2310      C2375   1.456       .  S
C2314      C2815   1.461       .  S
In2317     O2328   2.257       .  S
In2317     O2322   2.292   1_655  S
In2317     O2325   2.242   1_554  S
In2317     O2329   2.256       .  S
C2318      O2324   1.262       .  A
C2318      O2326   1.260   1_554  A
C2318      C2544   1.490   1_554  S
O2319      C2327   1.264       .  A
O2320      C2327   1.261       .  A
C2321      O2328   1.258       .  A
C2321      O2322   1.260   1_655  A
C2321      C2336   1.479       .  S
C2323      O2325   1.258       .  A
C2323      O2329   1.262   1_556  A
C2323      C2604   1.464       .  S
In2330     O2332   2.255       .  S
In2330     O2333   2.274   1_655  S
In2330     O2341   2.315       .  S
In2330     O2335   2.220       .  S
In2330     O2337   2.243       .  S
In2330     O2338   2.277       .  S
In2330     O2339   2.240       .  S
In2330     O2342   2.248       .  S
C2331      O2337   1.259       .  A
C2331      O2339   1.258       .  A
C2331      C2383   1.453       .  S
O2332      C2340   1.253       .  A
O2333      C2340   1.260   1_455  A
C2334      O2341   1.266       .  A
C2334      O2335   1.253       .  A
C2334      C2353   1.477       .  S
C2336      O2338   1.263       .  A
C2336      O2342   1.261       .  A
In2343     O2345   2.191       .  S
In2343     O2346   2.271       .  S
In2343     O2354   2.224       .  S
In2343     O2348   2.161       .  S
In2343     O2350   2.187       .  S
In2343     O2351   2.238       .  S
In2343     O2352   2.219       .  S
In2343     O2355   2.244       .  S
C2344      O2350   1.273       .  A
C2344      O2352   1.279       .  A
O2345      C2353   1.271       .  A
O2346      C2353   1.278       .  A
C2347      O2354   1.276       .  A
C2347      O2348   1.273       .  A
C2347      C2801   1.462       .  S
C2349      O2351   1.279       .  A
C2349      O2355   1.275       .  A
In2356     O2358   2.210       .  S
In2356     O2359   2.219       .  S
In2356     O2367   2.281       .  S
In2356     O2361   2.272       .  S
In2356     O2363   2.287       .  S
In2356     O2364   2.260       .  S
In2356     O2365   2.287       .  S
In2356     O2368   2.240       .  S
C2357      O2363   1.270       .  A
C2357      O2365   1.258       .  A
C2357      C2583   1.492       .  S
O2358      C2366   1.260       .  A
O2359      C2366   1.266       .  A
C2360      O2367   1.262       .  A
C2360      O2361   1.266       .  A
C2360      C2379   1.489       .  S
C2362      O2364   1.266       .  A
C2362      O2368   1.264       .  A
C2362      C2535   1.474   1_554  S
In2369     O2371   2.260       .  S
In2369     O2372   2.276       .  S
In2369     O2380   2.260       .  S
In2369     O2374   2.349       .  S
In2369     O2376   2.227       .  S
In2369     O2377   2.244       .  S
In2369     O2378   2.287       .  S
In2369     O2381   2.268       .  S
C2370      O2376   1.255       .  A
C2370      O2378   1.263       .  A
C2370      C2479   1.466       .  S
O2371      C2379   1.265       .  A
O2372      C2379   1.268       .  A
C2373      O2380   1.252       .  A
C2373      O2374   1.270       .  A
C2373      C2392   1.503       .  S
C2375      O2377   1.251       .  A
C2375      O2381   1.258       .  A
In2382     O2384   2.252       .  S
In2382     O2385   2.296       .  S
In2382     O2393   2.220       .  S
In2382     O2387   2.167       .  S
In2382     O2389   2.187       .  S
In2382     O2390   2.243       .  S
In2382     O2391   2.210       .  S
In2382     O2394   2.324       .  S
C2383      O2389   1.269       .  A
C2383      O2391   1.275       .  A
O2384      C2392   1.275       .  A
O2385      C2392   1.273       .  A
C2386      O2393   1.275       .  A
C2386      O2387   1.272       .  A
C2386      C2843   1.464       .  S
C2388      O2390   1.268       .  A
C2388      O2394   1.281       .  A
C2388      C2396   1.507       .  S
In2395     O2397   2.238       .  S
In2395     O2398   2.244       .  S
In2395     O2406   2.298       .  S
In2395     O2400   2.320       .  S
In2395     O2403   2.269       .  S
C2396      O2402   1.270       .  A
C2396      O2404   1.262       .  A
O2397      C2405   1.265       .  A
O2398      C2405   1.261       .  A
C2399      O2406   1.260       .  A
C2399      O2400   1.266       .  A
C2399      C2418   1.508       .  S
C2401      O2403   1.259       .  A
In2408     O2410   2.303       .  S
In2408     O2411   2.306       .  S
In2408     O2419   2.269       .  S
In2408     O2413   2.344       .  S
In2408     O2415   2.234       .  S
In2408     O2416   2.281       .  S
In2408     O2417   2.270       .  S
In2408     O2420   2.230       .  S
C2409      O2415   1.254       .  A
C2409      O2417   1.263       .  A
C2409      C2596   1.460       .  S
O2410      C2418   1.262       .  A
O2411      C2418   1.270       .  A
C2412      O2419   1.256       .  A
C2412      O2413   1.265       .  A
C2412      C2431   1.503       .  S
C2414      O2416   1.259       .  A
C2414      O2420   1.255       .  A
C2414      C2505   1.460       .  S
In2421     O2423   2.234       .  S
In2421     O2424   2.309       .  S
In2421     O2432   2.227       .  S
In2421     O2426   2.165       .  S
In2421     O2428   2.165       .  S
In2421     O2429   2.284       .  S
In2421     O2430   2.196       .  S
In2421     O2433   2.262       .  S
C2422      O2428   1.274       .  A
C2422      O2430   1.278       .  A
C2422      C2448   1.447       .  S
O2423      C2431   1.271       .  A
O2424      C2431   1.280       .  A
C2425      O2432   1.275       .  A
C2425      O2426   1.272       .  A
C2425      C2630   1.461       .  S
C2427      O2429   1.282       .  A
C2427      O2433   1.273       .  A
C2427      C2552   1.504       .  S
In2434     O2436   2.232       .  S
In2434     O2437   2.211       .  S
In2434     O2445   2.295       .  S
In2434     O2439   2.316       .  S
In2434     O2441   2.269       .  S
In2434     O2442   2.262       .  S
In2434     O2443   2.274       .  S
In2434     O2446   2.266       .  S
C2435      O2441   1.269       .  A
C2435      O2443   1.260       .  A
O2436      C2444   1.260       .  A
O2437      C2444   1.259       .  A
C2438      O2445   1.259       .  A
C2438      O2439   1.264       .  A
C2438      C2453   1.503       .  S
C2440      O2442   1.260       .  A
C2440      O2446   1.262       .  A
In2447     O2449   2.233       .  S
In2447     O2450   2.286       .  S
In2447     O2458   2.327       .  S
In2447     O2452   2.249       .  S
In2447     O2454   2.233       .  S
In2447     O2455   2.302       .  S
In2447     O2456   2.250       .  S
In2447     O2459   2.285       .  S
C2448      O2454   1.255       .  A
C2448      O2456   1.255       .  A
O2449      C2457   1.255       .  A
O2450      C2457   1.264       .  A
C2451      O2458   1.266       .  A
C2451      O2452   1.260       .  A
C2451      C2470   1.498       .  S
C2453      O2455   1.265       .  A
C2453      O2459   1.263       .  A
C2457      C2557   1.468       .  S
In2460     O2462   2.234       .  S
In2460     O2463   2.338       .  S
In2460     O2471   2.242       .  S
In2460     O2465   2.221       .  S
In2460     O2467   2.224       .  S
In2460     O2468   2.335       .  S
In2460     O2469   2.209       .  S
In2460     O2472   2.264       .  S
C2461      O2467   1.266       .  A
C2461      O2469   1.265       .  A
C2461      C2492   1.451       .  S
O2462      C2470   1.257       .  A
O2463      C2470   1.274       .  A
C2464      O2471   1.267       .  A
C2464      O2465   1.264       .  A
C2464      C2647   1.478       .  S
C2466      O2468   1.276       .  A
C2466      O2472   1.258       .  A
C2466      C2513   1.506       .  S
In2473     O2475   2.214       .  S
In2473     O2476   2.237       .  S
In2473     O2484   2.252       .  S
In2473     O2478   2.272       .  S
In2473     O2480   2.306       .  S
In2473     O2481   2.248       .  S
In2473     O2482   2.262       .  S
In2473     O2485   2.223       .  S
C2474      O2480   1.271       .  A
C2474      O2482   1.260       .  A
O2475      C2483   1.261       .  A
O2476      C2483   1.267       .  A
C2477      O2484   1.262       .  A
C2477      O2478   1.268       .  A
C2477      C2496   1.483       .  S
C2479      O2481   1.267       .  A
C2479      O2485   1.265       .  A
In2486     O2488   2.271       .  S
In2486     O2489   2.263       .  S
In2486     O2497   2.302       .  S
In2486     O2491   2.265       .  S
In2486     O2493   2.275       .  S
In2486     O2494   2.239       .  S
In2486     O2495   2.240       .  S
In2486     O2498   2.250       .  S
C2487      O2493   1.264       .  A
C2487      O2495   1.255       .  A
C2487      C2518   1.465       .  S
O2488      C2496   1.264       .  A
O2489      C2496   1.265       .  A
C2490      O2497   1.260       .  A
C2490      O2491   1.256       .  A
C2490      C2503   1.485       .  S
C2492      O2494   1.254       .  A
C2492      O2498   1.256       .  A
In2499     O2501   2.246       .  S
In2499     O2502   2.143       .  S
In2499     O2510   2.226       .  S
In2499     O2504   2.267       .  S
In2499     O2507   2.183       .  S
In2499     O2511   2.223       .  S
C2500      O2506   1.271       .  A
C2500      O2508   1.280       .  A
C2500      C2591   1.500       .  S
O2501      C2509   1.277       .  A
O2502      C2509   1.272       .  A
C2503      O2510   1.273       .  A
C2503      O2504   1.274       .  A
C2505      O2507   1.272       .  A
C2505      O2511   1.278       .  A
C2509      C2672   1.466       .  S
In2512     O2514   2.253       .  S
In2512     O2515   2.206       .  S
In2512     O2523   2.277       .  S
In2512     O2517   2.301       .  S
In2512     O2519   2.295       .  S
In2512     O2520   2.246       .  S
In2512     O2521   2.321       .  S
In2512     O2524   2.246       .  S
C2513      O2519   1.266       .  A
C2513      O2521   1.261       .  A
O2514      C2522   1.264       .  A
O2515      C2522   1.258       .  A
C2516      O2523   1.259       .  A
C2516      O2517   1.263       .  A
C2516      C2531   1.491       .  S
C2518      O2520   1.260       .  A
C2518      O2524   1.264       .  A
In2525     O2527   2.259   1_556  S
In2525     O2528   2.285       .  S
In2525     O2536   2.288       .  S
In2525     O2532   2.249       .  S
In2525     O2533   2.285       .  S
In2525     O2534   2.245       .  S
In2525     O2537   2.266       .  S
C2526      O2532   1.256       .  A
C2526      O2534   1.257       .  A
C2526      C2578   1.454       .  S
O2527      C2535   1.256   1_554  A
O2528      C2535   1.260       .  A
C2529      O2530   1.265       .  A
C2529      C2548   1.499       .  S
C2531      O2533   1.266       .  A
C2531      O2537   1.264       .  A
In2538     O2540   2.231       .  S
In2538     O2541   2.300       .  S
In2538     O2549   2.217       .  S
In2538     O2543   2.176   1_556  S
In2538     O2545   2.210       .  S
In2538     O2546   2.262       .  S
In2538     O2547   2.211       .  S
In2538     O2550   2.232   1_556  S
C2539      O2545   1.275       .  A
C2539      O2547   1.275       .  A
O2540      C2548   1.272       .  A
O2541      C2548   1.278       .  A
C2542      O2549   1.276   1_554  A
C2542      O2543   1.274       .  A
C2542      C2756   1.462       .  S
C2544      O2546   1.282       .  A
C2544      O2550   1.275   1_556  A
In2551     O2562   2.304       .  S
In2551     O2556   2.304       .  S
In2551     O2558   2.310       .  S
In2551     O2559   2.261       .  S
In2551     O2560   2.301       .  S
In2551     O2563   2.228       .  S
C2552      O2558   1.267       .  A
C2552      O2560   1.259       .  A
O2553      C2561   1.264       .  A
O2554      C2561   1.261       .  A
C2555      O2562   1.262       .  A
C2555      O2556   1.264       .  A
C2555      C2574   1.503   1_565  S
C2557      O2559   1.264       .  A
C2557      O2563   1.262       .  A
In2564     O2567   2.292   1_545  S
In2564     O2571   2.249   1_545  S
In2564     O2572   2.269   1_545  S
In2564     O2573   2.284   1_545  S
In2564     O2576   2.237   1_545  S
C2565      O2571   1.254       .  A
C2565      O2573   1.260       .  A
O2567      C2574   1.266   1_565  A
C2568      O2575   1.262       .  A
C2568      O2569   1.263       .  A
C2570      O2572   1.260       .  A
C2570      O2576   1.255       .  A
C2570      C2622   1.460       .  S
In2577     O2579   2.220   1_554  S
In2577     O2580   2.327   1_554  S
In2577     O2588   2.238       .  S
In2577     O2582   2.222       .  S
In2577     O2584   2.218       .  S
In2577     O2585   2.300       .  S
In2577     O2586   2.209   1_554  S
In2577     O2589   2.245       .  S
C2578      O2584   1.269   1_556  A
C2578      O2586   1.266       .  A
O2579      C2587   1.260       .  A
O2580      C2587   1.276       .  A
C2581      O2588   1.269       .  A
C2581      O2582   1.267       .  A
C2581      C2728   1.482       .  S
C2583      O2585   1.277       .  A
C2583      O2589   1.259       .  A
In2590     O2592   2.260       .  S
In2590     O2593   2.232       .  S
In2590     O2601   2.265       .  S
In2590     O2595   2.297       .  S
In2590     O2597   2.317   1_655  S
In2590     O2599   2.280       .  S
C2591      O2597   1.263       .  A
C2591      O2599   1.262   1_455  A
O2592      C2600   1.266       .  A
O2593      C2600   1.258       .  A
C2594      O2601   1.256       .  A
C2594      O2595   1.262       .  A
C2594      C2613   1.483       .  S
C2596      O2598   1.258       .  A
C2596      O2602   1.264       .  A
In2603     O2605   2.280       .  S
In2603     O2606   2.260       .  S
In2603     O2614   2.329       .  S
In2603     O2608   2.249       .  S
In2603     O2610   2.257       .  S
In2603     O2612   2.256       .  S
In2603     O2615   2.249       .  S
C2604      O2610   1.259       .  A
C2604      O2612   1.257       .  A
O2605      C2613   1.263       .  A
O2606      C2613   1.263       .  A
C2607      O2614   1.261       .  A
C2607      O2608   1.254       .  A
C2607      C2620   1.486       .  S
C2609      O2615   1.259   1_455  A
In2616     O2618   2.224   1_556  S
In2616     O2619   2.201   1_556  S
In2616     O2627   2.202       .  S
In2616     O2621   2.307       .  S
In2616     O2623   2.287       .  S
In2616     O2624   2.215       .  S
In2616     O2625   2.233   1_556  S
In2616     O2628   2.225       .  S
C2617      O2623   1.280   1_554  A
C2617      O2625   1.264       .  A
O2618      C2626   1.268       .  A
O2619      C2626   1.270       .  A
C2620      O2627   1.263       .  A
C2620      O2621   1.278       .  A
C2622      O2624   1.271       .  A
C2622      O2628   1.269       .  A
C2626      C2717   1.466       .  S
C2629      C2630   1.401       .  A
C2629      C2634   1.403       .  A
C2629      H2636   1.084       .  S
C2630      C2631   1.404       .  A
C2631      C2632   1.400       .  A
C2631      N2638   1.432       .  S
C2632      C2633   1.402       .  A
C2632      H2637   1.084       .  S
C2633      C2634   1.407       .  A
C2634      N2635   1.432       .  S
N2635      H2639   1.046       .  S
N2635      H2640   1.046       .  S
N2638      H2641   1.046       .  S
N2638      H2642   1.045   1_565  S
C2643      C2644   1.397       .  A
C2643      C2648   1.399       .  A
C2643      H2650   1.078       .  S
C2644      C2645   1.407       .  A
C2645      C2646   1.407       .  A
C2645      N2652   1.437       .  S
C2646      C2647   1.406       .  A
C2646      H2651   1.083       .  S
C2647      C2648   1.409       .  A
C2648      N2649   1.433       .  S
N2649      H2653   1.047       .  S
N2649      H2654   1.045       .  S
N2652      H2655   1.045       .  S
N2652      H2656   1.046       .  S
C2657      C2658   1.407       .  A
C2657      C2662   1.404       .  A
C2657      H2664   1.084       .  S
C2658      C2659   1.414       .  A
C2659      C2660   1.397       .  A
C2659      N2666   1.437       .  S
C2660      C2661   1.406       .  A
C2660      H2665   1.084       .  S
C2661      C2662   1.407       .  A
C2662      N2663   1.432       .  S
N2663      H2667   1.046       .  S
N2663      H2668   1.045       .  S
N2666      H2669   1.043       .  S
N2666      H2670   1.047   1_554  S
C2671      C2672   1.402       .  A
C2671      C2676   1.408       .  A
C2671      H2678   1.084       .  S
C2673      C2674   1.403       .  A
C2673      N2680   1.431       .  S
C2674      H2679   1.084       .  S
C2675      C2676   1.414       .  A
C2676      N2677   1.437       .  S
N2677      H2681   1.046       .  S
N2677      H2682   1.045       .  S
N2680      H2683   1.046       .  S
N2680      H2684   1.044       .  S
C2685      C2686   1.400   1_554  A
C2685      C2690   1.399       .  A
C2685      H2692   1.084       .  S
C2686      C2687   1.410       .  A
C2687      C2688   1.405       .  A
C2687      N2694   1.436       .  S
C2688      C2689   1.403       .  A
C2688      H2693   1.084       .  S
C2689      C2690   1.412   1_556  A
C2690      N2691   1.433       .  S
N2691      H2695   1.045       .  S
N2691      H2696   1.046       .  S
N2694      H2697   1.046       .  S
N2694      H2698   1.045       .  S
C2699      C2700   1.404       .  A
C2699      C2704   1.404       .  A
C2699      H2706   1.084       .  S
C2700      C2701   1.413       .  A
C2701      C2702   1.400       .  A
C2701      N2708   1.433       .  S
C2702      C2703   1.400       .  A
C2702      H2707   1.078       .  S
C2703      C2704   1.412       .  A
C2704      N2705   1.433       .  S
N2705      H2709   1.046       .  S
N2705      H2710   1.045       .  S
N2708      H2711   1.046       .  S
N2708      H2712   1.046       .  S
C2713      C2714   1.403       .  A
C2713      C2718   1.408       .  A
C2713      H2720   1.084       .  S
C2714      C2715   1.407       .  A
C2715      C2716   1.399       .  A
C2715      N2722   1.433       .  S
C2716      C2717   1.398       .  A
C2716      H2721   1.084       .  S
C2717      C2718   1.409       .  A
C2718      N2719   1.438       .  S
N2719      H2723   1.046       .  S
N2719      H2724   1.045       .  S
N2722      H2725   1.046       .  S
N2722      H2726   1.045       .  S
C2727      C2728   1.405       .  A
C2727      C2732   1.401       .  A
C2727      H2734   1.084       .  S
C2728      C2729   1.411       .  A
C2729      C2730   1.404       .  A
C2730      C2731   1.405       .  A
C2730      H2735   1.084       .  S
C2731      C2732   1.416       .  A
C2732      N2733   1.432       .  S
N2733      H2737   1.045       .  S
N2733      H2738   1.044       .  S
N2736      H2739   1.048       .  S
N2736      H2740   1.044       .  S
C2741      C2742   1.408       .  A
C2741      H2748   1.084       .  S
C2742      C2743   1.406       .  A
C2743      C2744   1.397       .  A
C2743      N2750   1.422       .  S
C2745      C2746   1.405       .  A
C2746      N2747   1.432       .  S
N2747      H2751   1.045       .  S
N2747      H2752   1.044       .  S
N2750      H2753   1.046       .  S
N2750      H2754   1.045       .  S
C2755      C2756   1.401       .  A
C2755      C2760   1.407       .  A
C2755      H2762   1.084       .  S
C2756      C2757   1.410       .  A
C2757      C2758   1.398       .  A
C2757      N2764   1.437       .  S
C2758      C2759   1.399       .  A
C2758      H2763   1.084       .  S
C2759      C2760   1.412       .  A
C2760      N2761   1.437       .  S
N2761      H2765   1.046       .  S
N2761      H2766   1.045       .  S
N2764      H2767   1.045       .  S
N2764      H2768   1.045       .  S
C2769      C2770   1.405   1_655  A
C2769      C2774   1.401       .  A
C2769      H2776   1.084       .  S
C2770      C2771   1.411       .  A
C2771      C2772   1.401   1_455  A
C2771      N2778   1.432       .  S
C2772      C2773   1.403       .  A
C2772      H2777   1.084       .  S
C2773      C2774   1.409       .  A
C2774      N2775   1.431       .  S
N2775      H2779   1.044       .  S
N2775      H2780   1.046       .  S
N2778      H2782   1.045       .  S
C2783      C2788   1.395       .  A
C2783      H2790   1.084       .  S
C2784      C2785   1.406       .  A
C2785      C2786   1.397       .  A
C2785      N2792   1.432       .  S
C2786      H2791   1.084       .  S
C2787      C2788   1.412       .  A
C2788      N2789   1.433       .  S
N2789      H2793   1.043       .  S
N2789      H2794   1.046       .  S
N2792      H2795   1.046       .  S
N2792      H2796   1.045       .  S
C2797      C2798   1.402       .  A
C2797      C2802   1.402       .  A
C2797      H2804   1.084       .  S
C2798      C2799   1.410       .  A
C2799      C2800   1.403       .  A
C2799      N2806   1.433       .  S
C2800      C2801   1.401       .  A
C2800      H2805   1.084       .  S
C2801      C2802   1.405       .  A
C2802      N2803   1.431       .  S
N2803      H2807   1.044       .  S
N2803      H2808   1.043       .  S
N2806      H2809   1.046       .  S
N2806      H2810   1.046   1_655  S
C2811      C2812   1.402       .  A
C2811      C2816   1.400       .  A
C2811      H2818   1.084       .  S
C2813      C2814   1.403   1_545  A
C2813      N2820   1.437       .  S
C2814      H2819   1.084       .  S
C2815      C2816   1.404       .  A
C2816      N2817   1.432       .  S
N2817      H2821   1.045       .  S
N2817      H2822   1.046       .  S
N2820      H2823   1.044   1_545  S
N2820      H2824   1.047   1_545  S
C2825      C2826   1.408       .  A
C2825      C2830   1.405       .  A
C2826      C2827   1.409       .  A
C2827      C2828   1.402       .  A
C2827      N2834   1.432       .  S
C2828      C2829   1.405       .  A
C2828      H2833   1.084       .  S
C2829      C2830   1.408       .  A
N2831      H2835   1.046       .  S
N2831      H2836   1.045       .  S
N2834      H2837   1.046       .  S
N2834      H2838   1.044       .  S
C2839      C2840   1.406       .  A
C2839      C2844   1.400       .  A
C2839      H2846   1.084       .  S
C2840      C2841   1.408       .  A
C2841      C2842   1.403       .  A
C2841      N2848   1.432       .  S
C2842      C2843   1.403       .  A
C2842      H2847   1.084       .  S
C2843      C2844   1.410       .  A
C2844      N2845   1.436       .  S
N2845      H2849   1.046       .  S
N2845      H2850   1.046       .  S
N2848      H2851   1.044       .  S
N2848      H2852   1.043       .  S
C2853      C2854   1.401       .  A
C2853      C2858   1.405       .  A
C2853      H2860   1.084       .  S
C2854      C2855   1.413       .  A
C2855      C2856   1.402       .  A
C2855      N2862   1.439       .  S
C2856      C2857   1.402       .  A
C2856      H2861   1.083       .  S
C2857      C2858   1.416       .  A
C2858      N2859   1.433       .  S
N2859      H2863   1.046       .  S
N2859      H2864   1.046       .  S
N2862      H2865   1.046       .  S
N2862      H2866   1.046       .  S
C2867      C2868   1.404       .  A
C2867      C2872   1.405       .  A
C2867      H2874   1.081       .  S
C2868      C2869   1.423       .  A
C2869      C2870   1.396       .  A
C2869      N2876   1.433       .  S
C2870      C2871   1.400       .  A
C2870      H2875   1.084       .  S
C2871      C2872   1.411       .  A
C2872      N2873   1.432       .  S
N2873      H2877   1.046       .  S
N2873      H2878   1.044       .  S
N2876      H2879   1.045       .  S
N2876      H2880   1.045       .  S
