geometry optimzed in LAMMPS
_audit_creation_date              2020-11-30 
_audit_creation_method            'lammps2cif' 
_symmetry_space_group_name_H-M    'P1' 
_symmetry_Int_Tables_number       1 
_symmetry_cell_setting            triclinic 
loop_ 
_symmetry_equiv_pos_as_xyz 
  x,y,z 
_cell_length_a                    49.67585739 
_cell_length_b                    49.60387558837892 
_cell_length_c                    49.550881192342885 
_cell_angle_alpha                 90.05658745074842 
_cell_angle_beta                  90.04670532956814 
_cell_angle_gamma                 90.01822117579188 
loop_ 
_atom_site_label 
_atom_site_type_symbol 
_atom_site_fract_x 
_atom_site_fract_y 
_atom_site_fract_z 
_atom_site_charge 
C1          C  0.13647674  0.73982955  0.97945920     0.79900
N2          N  0.10913091  0.73841093  0.97811231    -0.78400
C3          C  0.09396569  0.74037970  0.00082673     0.82300
N4          N  0.10632771  0.74275813  0.02523972    -0.78400
C5          C  0.13358665  0.74378535  0.02687986     0.82400
N6          N  0.14844607  0.74277351  0.00395282    -0.80100
C7          C  0.30371482  0.54656619  0.02599372     0.79900
N8          N  0.30098560  0.51925910  0.02503890    -0.78400
C9          C  0.30269417  0.50606439  0.00098250     0.82300
N10         N  0.30753647  0.52032433  0.97799988    -0.78400
C11         C  0.31045712  0.54756089  0.97881780     0.82400
N12         N  0.30838648  0.56049408  0.00287357    -0.80100
C13         C  0.02243472  0.23572909  0.01745444     0.79900
N14         N  0.01123185  0.23918227  0.99265501    -0.78400
C15         C  0.02657445  0.23844135  0.96997775     0.82300
N16         N  0.05335728  0.23350778  0.97204211    -0.78400
C17         C  0.06483264  0.22981475  0.99669810     0.82400
N18         N  0.04939592  0.23135535  0.01927289    -0.80100
C19         C  0.83544438  0.43417490  0.97816652     0.79900
N20         N  0.83759195  0.46140442  0.97784954    -0.78400
C21         C  0.83442470  0.47596188  0.00079677     0.82300
N22         N  0.82961772  0.46316471  0.02444541    -0.78400
C23         C  0.82785373  0.43587212  0.02511184     0.82400
N24         N  0.83059669  0.42142756  0.00193519    -0.80100
C25         C  0.80646393  0.01683813  0.05147336     0.79900
N26         N  0.80463311  0.01591654  0.02421229    -0.78400
C27         C  0.80655917  0.99203874  0.01088795     0.82300
N28         N  0.81052117  0.96885769  0.02497016    -0.78400
C29         C  0.81213292  0.96953450  0.05234802     0.82400
N30         N  0.81006347  0.99355969  0.06533698    -0.80100
C31         C  0.63294614  0.01560831  0.24691475     0.79900
N32         N  0.60561201  0.01548058  0.24661190    -0.78400
C33         C  0.59200569  0.99184576  0.24386643     0.82300
N34         N  0.60582330  0.96835724  0.24122655    -0.78400
C35         C  0.63313100  0.96827274  0.24162226     0.82400
N36         N  0.64645896  0.99197551  0.24462173    -0.80100
C37         C  0.33362705  0.96952444  0.94679352     0.79900
N38         N  0.33380512  0.99343329  0.93360955    -0.78400
C39         C  0.32987013  0.01679009  0.94726518     0.82300
N40         N  0.32568502  0.01617461  0.97432082    -0.78400
C41         C  0.32550681  0.99226593  0.98771038     0.82400
N42         N  0.32937536  0.96891439  0.97385578    -0.80100
C43         C  0.52281342  0.96822431  0.75822270     0.79900
N44         N  0.55013010  0.96832410  0.75787743    -0.78400
C45         C  0.56399107  0.99148048  0.76235199     0.82300
N46         N  0.55045226  0.01489855  0.76647750    -0.78400
C47         C  0.52315355  0.01505746  0.76670675     0.82400
N48         N  0.50947866  0.99167675  0.76287781    -0.80100
C49         C  0.02293464  0.74534643  0.02185451     0.79900
N50         N  0.00977640  0.74218152  0.99823676    -0.78400
C51         C  0.02342693  0.73795467  0.97500630     0.82300
N52         N  0.05091778  0.73729820  0.97542821    -0.78400
C53         C  0.06431894  0.74060247  0.99934326     0.82400
N54         N  0.05014675  0.74442139  0.02246216    -0.80100
C55         C  0.83550117  0.54788604  0.02096687     0.79900
N56         N  0.83941591  0.55970886  0.99667666    -0.78400
C57         C  0.84129807  0.54466875  0.97400675     0.82300
N58         N  0.83964941  0.51751865  0.97548409    -0.78400
C59         C  0.83635194  0.50533678  0.99971669     0.82400
N60         N  0.83379933  0.52054378  0.02242364    -0.80100
C61         C  0.13597531  0.22056128  0.97735583     0.79900
N62         N  0.14835761  0.22023342  0.00182744    -0.78400
C63         C  0.13365791  0.22197224  0.02492322     0.82300
N64         N  0.10639533  0.22439811  0.02328384    -0.78400
C65         C  0.09395146  0.22499322  0.99881746     0.82400
N66         N  0.10884661  0.22306631  0.97599709    -0.80100
C67         C  0.29903539  0.43697840  0.97299239     0.79900
N68         N  0.29985852  0.46422903  0.97497971    -0.78400
C69         C  0.30014647  0.47642515  0.99952848     0.82300
N70         N  0.29983405  0.46103201  0.02230865    -0.78400
C71         C  0.29943967  0.43356496  0.02058373     0.82400
N72         N  0.29913068  0.42174709  0.99578470    -0.80100
C73         C  0.80823225  0.01637838  0.94074469     0.79900
N74         N  0.80918117  0.99298601  0.92664044    -0.78400
C75         C  0.80868321  0.96898143  0.93975291     0.82300
N76         N  0.80748734  0.96848781  0.96717910    -0.78400
C77         C  0.80653024  0.99196722  0.98132780     0.82400
N78         N  0.80700525  0.01582762  0.96801007    -0.80100
C79         C  0.63447898  0.01479950  0.76442786     0.79900
N80         N  0.60719638  0.01484872  0.76441558    -0.78400
C81         C  0.59345141  0.99126055  0.76249484     0.82300
N82         N  0.60712141  0.96758468  0.76045344    -0.78400
C83         C  0.63446109  0.96755984  0.76051314     0.82400
N84         N  0.64796836  0.99118528  0.76250802    -0.80100
C85         C  0.31349317  0.01517310  0.05775946     0.79900
N86         N  0.31604276  0.01510952  0.03047835    -0.78400
C87         C  0.32111333  0.99176614  0.01700426     0.82300
N88         N  0.32347015  0.96828405  0.03095159    -0.78400
C89         C  0.32063571  0.96816361  0.05822067     0.82400
N90         N  0.31581138  0.99161483  0.07132040    -0.80100
C91         C  0.52186979  0.96723440  0.24744235     0.79900
N92         N  0.50792682  0.99078327  0.24627860    -0.78400
C93         C  0.52115362  0.01470628  0.24409411     0.82300
N94         N  0.54846637  0.01494186  0.24322823    -0.78400
C95         C  0.56251642  0.99151363  0.24443549     0.82400
N96         N  0.54916044  0.96772352  0.24647430    -0.80100
C97         C  0.05193744  0.04539347  0.74190146     0.79900
N98         N  0.05226397  0.01789307  0.74338105    -0.78400
C99         C  0.07568466  0.00446079  0.74868122     0.82300
N100        N  0.09895286  0.01865183  0.75181053    -0.78400
C101        C  0.09881225  0.04596733  0.75040832     0.82400
N102        N  0.07530028  0.05894300  0.74599052    -0.80100
C103        C  0.05393192  0.21330350  0.55667908     0.79900
N104        N  0.07742841  0.21468210  0.57075012    -0.78400
C105        C  0.10138449  0.21468686  0.55755946     0.82300
N106        N  0.10180651  0.21348226  0.53024524    -0.78400
C107        C  0.07850324  0.21209282  0.51596975     0.82400
N108        N  0.05456084  0.21207337  0.52923240    -0.80100
C109        C  0.10156522  0.93521353  0.75931833     0.79900
N110        N  0.10037695  0.96231458  0.75577782    -0.78400
C111        C  0.07632681  0.97476706  0.75156594     0.82300
N112        N  0.05330876  0.95975259  0.75091796    -0.78400
C113        C  0.05444969  0.93250762  0.75468240     0.82400
N114        N  0.07859424  0.92060241  0.75890150    -0.80100
C115        C  0.05489691  0.74640665  0.55637682     0.79900
N116        N  0.05435181  0.74754892  0.52894410    -0.78400
C117        C  0.07738149  0.74405201  0.51448297     0.82300
N118        N  0.10105141  0.73970764  0.52756759    -0.78400
C119        C  0.10181735  0.73867813  0.55492312     0.82400
N120        N  0.07868479  0.74184896  0.56896573    -0.80100
C121        C  0.10819345  0.93716656  0.22532869     0.79900
N122        N  0.08546272  0.92188000  0.22492729    -0.78400
C123        C  0.06074626  0.93371147  0.22476181     0.82300
N124        N  0.05917309  0.96110518  0.22556314    -0.78400
C125        C  0.08189799  0.97642232  0.22657629     0.82400
N126        N  0.10630748  0.96434256  0.22645011    -0.80100
C127        C  0.10048953  0.75125446  0.44384130     0.79900
N128        N  0.10022241  0.75047606  0.47123052    -0.78400
C129        C  0.07701362  0.74535949  0.48485619     0.82300
N130        N  0.05375369  0.74116019  0.47093813    -0.78400
C131        C  0.05367838  0.74208142  0.44350512     0.82400
N132        N  0.07711301  0.74700928  0.43040113    -0.80100
C133        C  0.05430857  0.04427156  0.23919338     0.79900
N134        N  0.07706951  0.05906190  0.24176973    -0.78400
C135        C  0.10153480  0.04741630  0.23879473     0.82300
N136        N  0.10310485  0.02059999  0.23331542    -0.78400
C137        C  0.08025707  0.00560669  0.23087049     0.82400
N138        N  0.05589538  0.01753871  0.23380334    -0.80100
C139        C  0.10597464  0.21203443  0.44681220     0.79900
N140        N  0.10400830  0.21051228  0.47402811    -0.78400
C141        C  0.07964145  0.21203732  0.48632313     0.82300
N142        N  0.05699934  0.21529082  0.47114227    -0.78400
C143        C  0.05877134  0.21650416  0.44372305     0.82400
N144        N  0.08330435  0.21481958  0.43186644    -0.80100
C145        C  0.34712499  0.51442692  0.44646745     0.79900
N146        N  0.34812148  0.51459926  0.47388175    -0.78400
C147        C  0.34679245  0.49097936  0.48771690     0.82300
N148        N  0.34399652  0.46741430  0.47409156    -0.78400
C149        C  0.34281224  0.46719269  0.44679734     0.82400
N150        N  0.34445673  0.49074588  0.43302920    -0.80100
C151        C  0.13605035  0.47391637  0.25594128     0.79900
N152        N  0.10876443  0.47228762  0.25628760    -0.78400
C153        C  0.09324438  0.49476675  0.25783215     0.82300
N154        N  0.10506512  0.51940962  0.25823104    -0.78400
C155        C  0.13228017  0.52154071  0.25742927     0.82400
N156        N  0.14769413  0.49879633  0.25652014    -0.80100
O157        O  0.28569336  0.74000546  0.17573713    -0.86800
O158        O  0.28576679  0.74409681  0.32903893    -0.87000
O159        O  0.25026081  0.70375861  0.24999202    -0.88700
O160        O  0.25656437  0.79036672  0.25205656    -0.87400
O161        O  0.29036638  0.82103236  0.25535718    -0.87000
O162        O  0.28060282  0.66925341  0.25001152    -0.88400
O163        O  0.25374669  0.74927498  0.29605083    -0.86800
O164        O  0.25430443  0.73744731  0.20886521    -0.86400
Zr165      Zr  0.27573377  0.74494319  0.25262789     2.84300
O166        O  0.30281529  0.77004004  0.28121869    -1.08400
O167        O  0.31996167  0.73274084  0.24266312    -1.09100
C168        C  0.26129044  0.73800021  0.18386087     1.06300
C169        C  0.26128304  0.74789317  0.32087607     1.06200
C170        C  0.25637602  0.67868281  0.25030089     1.09200
C171        C  0.26528120  0.81483125  0.25394491     1.07000
H172        H  0.28700435  0.70234418  0.29062575     0.32600
O173        O  0.29872913  0.71299077  0.27930994    -1.29400
H174        H  0.29033372  0.78242022  0.21194600     0.32200
O175        O  0.30134323  0.77076503  0.22301038    -1.31000
O176        O  0.37399907  0.73601869  0.32623115    -0.86800
O177        O  0.37212056  0.74513175  0.17467922    -0.88300
O178        O  0.33356069  0.66456953  0.29411189    -0.86900
O179        O  0.33324840  0.81511427  0.29701709    -0.86900
O180        O  0.33017061  0.81813376  0.20892842    -0.86600
O181        O  0.31764597  0.66543421  0.20855329    -0.86500
O182        O  0.40335342  0.69221574  0.24946550    -0.86800
O183        O  0.40733331  0.78017392  0.24887977    -0.86300
O184        O  0.36898184  0.66141739  0.25097442    -0.87400
O185        O  0.37607230  0.81380173  0.25339141    -0.86500
O186        O  0.32905497  0.69502000  0.32806109    -0.86900
O187        O  0.32107316  0.69809851  0.17645510    -0.86600
O188        O  0.33101459  0.78589851  0.17569741    -0.86300
O189        O  0.33654614  0.78146465  0.32810898    -0.86700
O190        O  0.40636539  0.73545549  0.29306997    -0.87000
O191        O  0.40427234  0.73530990  0.20569515    -0.88300
Zr192      Zr  0.32912487  0.73875781  0.30570152     2.83100
Zr193      Zr  0.32915424  0.74214789  0.19758341     2.83500
Zr194      Zr  0.32668731  0.68698757  0.25132548     2.84100
Zr195      Zr  0.33116043  0.79453973  0.25212268     2.83400
Zr196      Zr  0.38300860  0.73690897  0.24965233     2.84200
O197        O  0.35847589  0.76806325  0.22337263    -1.08900
O198        O  0.35618006  0.71053482  0.27875085    -1.08400
C199        C  0.39874280  0.73509542  0.31802181     1.06300
C200        C  0.39668264  0.74062675  0.18143485     1.08900
C201        C  0.33295707  0.67084696  0.31925284     1.06400
C202        C  0.33638417  0.80651853  0.32143936     1.06800
C203        C  0.33048800  0.81051758  0.18399364     1.06400
C204        C  0.31754040  0.67344423  0.18397762     1.05900
C205        C  0.39420828  0.66785637  0.25022891     1.06400
C206        C  0.40048988  0.80531353  0.25093179     1.05900
H207        H  0.36482351  0.69849310  0.20944183     0.32500
O208        O  0.35480514  0.71034263  0.22121954    -1.30000
H209        H  0.36916332  0.77474314  0.28867007     0.32600
O210        O  0.35692200  0.76444814  0.27757372    -1.31400
C211        C  0.52476603  0.22916726  0.47532706     0.79900
N212        N  0.51116740  0.22957336  0.49920118    -0.78400
C213        C  0.52454342  0.23247702  0.52303506     0.82300
N214        N  0.55171120  0.23571278  0.52292092    -0.78400
C215        C  0.56535198  0.23563118  0.49915274     0.82400
N216        N  0.55185216  0.23199643  0.47569739    -0.80100
C217        C  0.36091178  0.04827813  0.47944661     0.79900
N218        N  0.36171548  0.02082983  0.47808772    -0.78400
C219        C  0.36262553  0.00584435  0.50109238     0.82300
N220        N  0.36224265  0.01830863  0.52542523    -0.78400
C221        C  0.36136885  0.04549050  0.52700089     0.82400
N222        N  0.36061916  0.06043210  0.50405414    -0.80100
O223        O  0.32647332  0.16461362  0.79644672    -0.86800
O224        O  0.32623006  0.31756519  0.79160177    -0.87000
O225        O  0.36820873  0.24290381  0.82881025    -0.88700
O226        O  0.28267854  0.23937840  0.82500193    -0.87400
O227        O  0.25026632  0.24030133  0.79207568    -0.87000
O228        O  0.40173175  0.23909878  0.79732521    -0.88400
O229        O  0.32302797  0.28589366  0.82502827    -0.86800
O230        O  0.32666749  0.19859443  0.82796283    -0.86400
Zr231      Zr  0.32629285  0.24142654  0.80406742     2.84300
O232        O  0.29978386  0.26803371  0.77567315    -1.08400
O233        O  0.35424057  0.21304067  0.77895695    -1.09100
C234        C  0.32666326  0.17353837  0.82093426     1.06300
C235        C  0.32369086  0.31053152  0.81659784     1.06200
C236        C  0.39309983  0.24100639  0.82189154     1.09200
C237        C  0.25804806  0.23942399  0.81701101     1.07000
H238        H  0.36547988  0.27929605  0.78886297     0.32600
O239        O  0.35477302  0.26771821  0.77742362    -1.29400
H240        H  0.28830611  0.20195970  0.78845528     0.32200
O241        O  0.29983533  0.21296694  0.77730302    -1.31000
O242        O  0.33321069  0.31443376  0.70398081    -0.86800
O243        O  0.33154512  0.16056143  0.70930093    -0.88300
O244        O  0.40465734  0.28283072  0.75287923    -0.86900
O245        O  0.25178434  0.28323964  0.74419831    -0.86900
O246        O  0.25141299  0.19581754  0.74809695    -0.86600
O247        O  0.40496615  0.19599024  0.75458501    -0.86500
O248        O  0.37407124  0.23649083  0.67505779    -0.86800
O249        O  0.28687259  0.23745490  0.67169789    -0.86300
O250        O  0.40616099  0.23885696  0.70826179    -0.87400
O251        O  0.25380094  0.23564082  0.70381341    -0.86500
O252        O  0.37226777  0.31546224  0.74897308    -0.86900
O253        O  0.37188798  0.16377026  0.75648926    -0.86600
O254        O  0.28379007  0.16278809  0.74955236    -0.86300
O255        O  0.28474681  0.31569193  0.74446104    -0.86700
O256        O  0.33392098  0.28040870  0.67259138    -0.87000
O257        O  0.32963162  0.19228262  0.67584309    -0.88300
Zr258      Zr  0.32838127  0.29374998  0.74835638     2.83100
Zr259      Zr  0.32782041  0.18492088  0.75181306     2.83500
Zr260      Zr  0.38244866  0.23924120  0.75184758     2.84100
Zr261      Zr  0.27373643  0.23952989  0.74847563     2.83400
Zr262      Zr  0.32970799  0.23731426  0.69584426     2.84200
O263        O  0.30147435  0.21119279  0.72293983    -1.08900
O264        O  0.35611629  0.26540283  0.72295154    -1.08400
C265        C  0.33505415  0.30549174  0.67954848     1.06300
C266        C  0.33156843  0.16770025  0.68426239     1.08900
C267        C  0.39694714  0.30758860  0.75105793     1.06400
C268        C  0.25996030  0.30793572  0.74306789     1.06800
C269        C  0.25906833  0.17093315  0.74846496     1.06400
C270        C  0.39676302  0.17142900  0.75671256     1.05900
C271        C  0.39873618  0.23770632  0.68320966     1.06400
C272        C  0.26198777  0.23593565  0.67909481     1.05900
H273        H  0.36788933  0.19936167  0.71413098     0.32500
O274        O  0.35622357  0.21093514  0.72456158    -1.30000
H275        H  0.29125381  0.27662364  0.70874417     0.32600
O276        O  0.30181998  0.26580104  0.72099664    -1.31400
C277        C  0.52216041  0.72642650  0.47896471     0.79900
N278        N  0.51028689  0.72675488  0.50370050    -0.78400
C279        C  0.52558768  0.72745071  0.52647619     0.82300
N280        N  0.55278257  0.72826043  0.52449936    -0.78400
C281        C  0.56469906  0.72812093  0.49986936     0.82400
N282        N  0.54938518  0.72706940  0.47727403    -0.80100
C283        C  0.35985317  0.93489938  0.52347581     0.79900
N284        N  0.36109980  0.96220008  0.52376155    -0.78400
C285        C  0.36216244  0.97627085  0.50023390     0.82300
N286        N  0.36156292  0.96286910  0.47630723    -0.78400
C287        C  0.36036894  0.93550578  0.47605804     0.82400
N288        N  0.35945255  0.92162975  0.49959730    -0.80100
C289        C  0.34605570  0.46551675  0.55761934     0.79900
N290        N  0.34685908  0.46649888  0.53030570    -0.78400
C291        C  0.34723047  0.49055238  0.51726706     0.82300
N292        N  0.34642361  0.51383597  0.53168364    -0.78400
C293        C  0.34520608  0.51306788  0.55907559     0.82400
N294        N  0.34510570  0.48887190  0.57188794    -0.80100
C295        C  0.13594749  0.46742022  0.73237125     0.79900
N296        N  0.14885497  0.49143116  0.73136051    -0.78400
C297        C  0.13489508  0.51481694  0.72988284     0.82300
N298        N  0.10760918  0.51423150  0.72897135    -0.78400
C299        C  0.09441508  0.49026315  0.72975993     0.82400
N300        N  0.10862349  0.46691511  0.73174871    -0.80100
O301        O  0.28456440  0.74483958  0.82633766    -0.86800
O302        O  0.28615504  0.73982183  0.67219141    -0.87000
O303        O  0.25011102  0.78209622  0.75353815    -0.88700
O304        O  0.25289833  0.69622665  0.75060610    -0.87400
O305        O  0.28619075  0.66439583  0.74997448    -0.87000
O306        O  0.28111798  0.81624096  0.75189007    -0.88400
O307        O  0.25320030  0.74019088  0.70478031    -0.86800
O308        O  0.25194447  0.74106055  0.79366905    -0.86400
Zr309      Zr  0.27426707  0.74039114  0.74971932     2.84300
O310        O  0.30224658  0.71330894  0.72354418    -1.08400
O311        O  0.30022870  0.76968226  0.77618919    -1.09100
C312        C  0.25988197  0.74300134  0.81845101     1.06300
C313        C  0.26137310  0.73975241  0.67994770     1.06200
C314        C  0.25667633  0.80711192  0.75405352     1.09200
C315        C  0.26122399  0.67160179  0.74978079     1.07000
H316        H  0.28908821  0.77877479  0.71001342     0.32600
O317        O  0.30047889  0.76801195  0.72156170    -1.29400
H318        H  0.29049957  0.70397091  0.79007500     0.32200
O319        O  0.30155376  0.71502672  0.77849188    -1.31000
O320        O  0.37348347  0.73826336  0.67429390    -0.86800
O321        O  0.37150782  0.74690909  0.82657398    -0.88300
O322        O  0.32718493  0.81769640  0.70395993    -0.86900
O323        O  0.32910715  0.66425224  0.70869731    -0.86900
O324        O  0.32859184  0.66722958  0.79729172    -0.86600
O325        O  0.33096920  0.82038500  0.79110253    -0.86500
O326        O  0.40436941  0.78676544  0.74774690    -0.86800
O327        O  0.40520566  0.69973627  0.75162815    -0.86300
O328        O  0.37107370  0.81892454  0.74703204    -0.87400
O329        O  0.37325240  0.66635929  0.75379785    -0.86500
O330        O  0.33321269  0.78387098  0.67310971    -0.86900
O331        O  0.32895161  0.78948944  0.82482402    -0.86600
O332        O  0.33007635  0.70148352  0.82835890    -0.86300
O333        O  0.32689081  0.69609189  0.67517997    -0.86700
O334        O  0.40541843  0.74352968  0.70707355    -0.87000
O335        O  0.40406358  0.74407361  0.79398176    -0.88300
Zr336      Zr  0.32907126  0.74044190  0.69576832     2.83100
Zr337      Zr  0.32815068  0.74443808  0.80434342     2.83500
Zr338      Zr  0.32681126  0.79672162  0.74833105     2.84100
Zr339      Zr  0.32933066  0.68759130  0.75216547     2.83400
Zr340      Zr  0.38235544  0.74308218  0.75015544     2.84200
O341        O  0.35591570  0.71638027  0.77852810    -1.08900
O342        O  0.35494814  0.76923297  0.72228988    -1.08400
C343        C  0.39818322  0.74061061  0.68228289     1.06300
C344        C  0.39619319  0.74581652  0.81871082     1.08900
C345        C  0.33143490  0.80898859  0.67977609     1.06400
C346        C  0.32768188  0.67153356  0.68367859     1.06800
C347        C  0.32934312  0.67625640  0.82181668     1.06400
C348        C  0.33144168  0.81397240  0.81626359     1.05900
C349        C  0.39605582  0.81137942  0.74688772     1.06400
C350        C  0.39778150  0.67484552  0.75316485     1.05900
H351        H  0.36620865  0.78265302  0.78687386     0.32500
O352        O  0.35485367  0.77098966  0.77619474    -1.30000
H353        H  0.36777186  0.70255263  0.71293359     0.32600
O354        O  0.35633839  0.71401859  0.72373649    -1.31400
C355        C  0.83276751  0.51646911  0.44230532     0.79900
N356        N  0.82979781  0.51548816  0.46947172    -0.78400
C357        C  0.82695031  0.49132541  0.48199707     0.82300
N358        N  0.82663995  0.46828812  0.46719535    -0.78400
C359        C  0.82968914  0.46915245  0.43999200     0.82400
N360        N  0.83291034  0.49335300  0.42768405    -0.80100
C361        C  0.02058675  0.51195932  0.25875618     0.79900
N362        N  0.04785951  0.51448801  0.25862764    -0.78400
C363        C  0.06382897  0.49221345  0.25906376     0.82300
N364        N  0.05245638  0.46733655  0.25986442    -0.78400
C365        C  0.02531675  0.46465358  0.26039106     0.82400
N366        N  0.00946051  0.48693989  0.25962692    -0.80100
C367        C  0.60092350  0.54448029  0.25327588     0.79900
N368        N  0.57680338  0.55716539  0.25409532    -0.78400
C369        C  0.55376423  0.54316140  0.25860720     0.82300
N370        N  0.55507470  0.51591254  0.26160037    -0.78400
C371        C  0.57921232  0.50294390  0.26032885     0.82400
N372        N  0.60214389  0.51737603  0.25651270    -0.80100
C373        C  0.59884922  0.74045161  0.05515531     0.79900
N374        N  0.57505991  0.73665545  0.06804236    -0.78400
C375        C  0.55194570  0.73411278  0.05376562     0.82300
N376        N  0.55262025  0.73482397  0.02649992    -0.78400
C377        C  0.57637639  0.73817998  0.01348720     0.82400
N378        N  0.59939098  0.74135129  0.02781412    -0.80100
O379        O  0.82994388  0.81972258  0.20432374    -0.86800
O380        O  0.82309382  0.66661279  0.20282355    -0.87000
O381        O  0.86837625  0.74749337  0.17008020    -0.88700
O382        O  0.78225530  0.74211985  0.17122006    -0.87400
O383        O  0.75054591  0.74402982  0.20467110    -0.87000
O384        O  0.90232250  0.74166852  0.20057357    -0.88400
O385        O  0.82574706  0.69976817  0.17046285    -0.86800
O386        O  0.82647920  0.78775716  0.17095245    -0.86400
Zr387      Zr  0.82603656  0.74338845  0.19298519     2.84300
O388        O  0.79889250  0.71586202  0.21988949    -1.08400
O389        O  0.85515833  0.76871783  0.21986579    -1.09100
C390        C  0.82823385  0.81241117  0.17939577     1.06300
C391        C  0.82418538  0.67494785  0.17815506     1.06200
C392        C  0.89335916  0.74569132  0.17633344     1.09200
C393        C  0.75773907  0.74272975  0.17970711     1.07000
H394        H  0.86359078  0.70302974  0.20716914     0.32600
O395        O  0.85306074  0.71442023  0.21892494    -1.29400
H396        H  0.78937055  0.78276843  0.20975620     0.32200
O397        O  0.80053222  0.77121829  0.22074815    -1.31000
O398        O  0.82891065  0.66634619  0.29114110    -0.86800
O399        O  0.83036242  0.81945123  0.29120735    -0.88300
O400        O  0.90208795  0.69488656  0.24330331    -0.86900
O401        O  0.75080040  0.69971507  0.24653712    -0.86900
O402        O  0.75269083  0.78761021  0.24902114    -0.86600
O403        O  0.90604073  0.78279983  0.24315058    -0.86500
O404        O  0.87150872  0.74056155  0.32397040    -0.86800
O405        O  0.78366837  0.74351462  0.32339627    -0.86300
O406        O  0.90378581  0.73889493  0.29066739    -0.87400
O407        O  0.75080745  0.74377417  0.29079507    -0.86500
O408        O  0.86804788  0.66406386  0.24669810    -0.86900
O409        O  0.87539234  0.81713063  0.24572077    -0.86600
O410        O  0.78618286  0.81959805  0.24843104    -0.86300
O411        O  0.78184674  0.66629598  0.25002473    -0.86700
O412        O  0.83274268  0.69888925  0.32328499    -0.87000
O413        O  0.83034237  0.78650229  0.32364580    -0.88300
Zr414      Zr  0.82558372  0.68811884  0.24707702     2.83100
Zr415      Zr  0.82993072  0.79695562  0.24764876     2.83500
Zr416      Zr  0.88207991  0.74008641  0.24587045     2.84100
Zr417      Zr  0.77357133  0.74353725  0.24785767     2.83400
Zr418      Zr  0.82819692  0.74252356  0.30152602     2.84200
O419        O  0.80173979  0.77047026  0.27470011    -1.08900
O420        O  0.85401537  0.71452080  0.27361587    -1.08400
C421        C  0.83266326  0.67404003  0.31576624     1.06300
C422        C  0.83052631  0.81140075  0.31595247     1.08900
C423        C  0.89310999  0.67041428  0.24466726     1.06400
C424        C  0.75733063  0.67458477  0.24855599     1.06800
C425        C  0.76121054  0.81215637  0.24872548     1.06400
C426        C  0.89980045  0.80804769  0.24352158     1.05900
C427        C  0.89605934  0.73925115  0.31568447     1.06400
C428        C  0.75875918  0.74405524  0.31550554     1.05900
H429        H  0.86854797  0.77928822  0.28513310     0.32500
O430        O  0.85665089  0.76851365  0.27409585    -1.30000
H431        H  0.78846834  0.70454655  0.28684667     0.32600
O432        O  0.79966229  0.71553244  0.27532882    -1.31400
C433        C  0.63633668  0.73189007  0.51853271     0.79900
N434        N  0.60937414  0.72818473  0.51997744    -0.78400
C435        C  0.59386781  0.73067029  0.49763958     0.82300
N436        N  0.60540528  0.73671633  0.47355571    -0.78400
C437        C  0.63245769  0.74008266  0.47178325     0.82400
N438        N  0.64775204  0.73775742  0.49438467    -0.80100
C439        C  0.82967720  0.93598868  0.52287144     0.79900
N440        N  0.83013406  0.92263289  0.49895055    -0.78400
C441        C  0.83065933  0.93638191  0.47529835     0.82300
N442        N  0.83088568  0.96372160  0.47560428    -0.78400
C443        C  0.83055509  0.97722280  0.49946035     0.82400
N444        N  0.82989423  0.96331964  0.52305620    -0.80100
C445        C  0.60093576  0.54569462  0.74960190     0.79900
N446        N  0.60040938  0.51858640  0.75264335    -0.78400
C447        C  0.57658013  0.50557860  0.75541853     0.82300
N448        N  0.55320439  0.51972533  0.75506464    -0.78400
C449        C  0.55355550  0.54691515  0.75234546     0.82400
N450        N  0.57754577  0.55983805  0.74965957    -0.80100
C451        C  0.55325639  0.73620877  0.94321889     0.79900
N452        N  0.57679480  0.73739973  0.92953110    -0.78400
C453        C  0.60050019  0.73887021  0.94305730     0.82300
N454        N  0.60059871  0.73926510  0.97045591    -0.78400
C455        C  0.57692864  0.73801946  0.98413320     0.82400
N456        N  0.55338025  0.73644470  0.97046731    -0.80100
C457        C  0.82391816  0.51203592  0.55350049     0.79900
N458        N  0.82411954  0.51307275  0.52615209    -0.78400
C459        C  0.82530695  0.49000691  0.51144110     0.82300
N460        N  0.82632589  0.46578513  0.52416757    -0.78400
C461        C  0.82610384  0.46461166  0.55151803     0.82400
N462        N  0.82497733  0.48777174  0.56608267    -0.80100
C463        C  0.02325767  0.51227541  0.72962315     0.79900
N464        N  0.05057249  0.51289550  0.72850442    -0.78400
C465        C  0.06494185  0.48959953  0.72959203     0.82300
N466        N  0.05194047  0.46569009  0.73214514    -0.78400
C467        C  0.02470313  0.46490859  0.73332300     0.82400
N468        N  0.01041116  0.48824767  0.73217830    -0.80100
O469        O  0.86547124  0.73698900  0.82838902    -0.86800
O470        O  0.87475966  0.74117658  0.67548429    -0.87000
O471        O  0.90361113  0.69470855  0.75417974    -0.88700
O472        O  0.90318112  0.78226659  0.75410748    -0.87400
O473        O  0.87097355  0.81534785  0.75227701    -0.87000
O474        O  0.87135925  0.66232586  0.74988227    -0.88400
O475        O  0.90560687  0.74050465  0.71017647    -0.86800
O476        O  0.90025733  0.73639675  0.79790013    -0.86400
Zr477      Zr  0.88115767  0.73847589  0.75254469     2.84300
O478        O  0.85585083  0.76545115  0.72324815    -1.08400
O479        O  0.85247406  0.71192346  0.77854789    -1.09100
C480        C  0.89065477  0.73587511  0.82212957     1.06300
C481        C  0.89894896  0.74170178  0.68503951     1.06200
C482        C  0.89619523  0.66984850  0.75226946     1.09200
C483        C  0.89554939  0.80715424  0.75410567     1.07000
H484        H  0.86764640  0.70005869  0.71271950     0.32600
O485        O  0.85584065  0.71126421  0.72339378    -1.29400
H486        H  0.86348979  0.77743963  0.78984146     0.32200
O487        O  0.85284952  0.76636700  0.77785416    -1.31000
O488        O  0.78707852  0.73668149  0.67039463    -0.86800
O489        O  0.77856103  0.74184410  0.82237140    -0.88300
O490        O  0.82731081  0.66197446  0.70622977    -0.86900
O491        O  0.83155215  0.81491800  0.70441646    -0.86900
O492        O  0.82496299  0.81532799  0.79230115    -0.86600
O493        O  0.82893744  0.66383848  0.79422211    -0.86500
O494        O  0.75174561  0.69532110  0.74359563    -0.86800
O495        O  0.75089723  0.78369983  0.74679975    -0.86300
O496        O  0.78357105  0.66244989  0.74968946    -0.87400
O497        O  0.78409223  0.81580452  0.74677563    -0.86500
O498        O  0.83056836  0.69410726  0.67305351    -0.86900
O499        O  0.82037451  0.69634316  0.82556001    -0.86600
O500        O  0.82352037  0.78338912  0.82568429    -0.86300
O501        O  0.82848025  0.78201790  0.67228743    -0.86700
O502        O  0.75266175  0.73845640  0.70126796    -0.87000
O503        O  0.74767581  0.74009242  0.78799307    -0.88300
Zr504      Zr  0.82975034  0.73837223  0.69475931     2.83100
Zr505      Zr  0.82353367  0.73970693  0.80325599     2.83500
Zr506      Zr  0.82729116  0.68464002  0.74975081     2.84100
Zr507      Zr  0.82751069  0.79322563  0.74845335     2.83400
Zr508      Zr  0.77281828  0.73948622  0.74591980     2.84200
O509        O  0.79835774  0.76694599  0.77437673    -1.08900
O510        O  0.80140295  0.71158223  0.72091279    -1.08400
C511        C  0.76191789  0.73702636  0.67699727     1.06300
C512        C  0.75427041  0.74139950  0.81314993     1.08900
C513        C  0.82891886  0.66944416  0.68133481     1.06400
C514        C  0.83021702  0.80692867  0.67963047     1.06800
C515        C  0.82389691  0.80801138  0.81729233     1.06400
C516        C  0.82475106  0.67170410  0.81868273     1.05900
C517        C  0.75906992  0.67053290  0.74646617     1.06400
C518        C  0.75917495  0.80842883  0.74723502     1.05900
H519        H  0.78611245  0.70102481  0.78569485     0.32500
O520        O  0.79801294  0.71203531  0.77494151    -1.30000
H521        H  0.79053708  0.77759541  0.70799461     0.32600
O522        O  0.80122803  0.76639925  0.71979644    -1.31400
C523        C  0.55930511  0.43117360  0.25649517     0.79900
N524        N  0.55781925  0.45846078  0.25812798    -0.78400
C525        C  0.58053094  0.47336061  0.26132957     0.82300
N526        N  0.60477144  0.46078674  0.26320131    -0.78400
C527        C  0.60646270  0.43348229  0.26171935     0.82400
N528        N  0.58363215  0.41879069  0.25811144    -0.80100
C529        C  0.60184459  0.24608476  0.05680142     0.79900
N530        N  0.60116999  0.24186918  0.02967077    -0.78400
C531        C  0.57746565  0.23648769  0.01702038     0.82300
N532        N  0.55435906  0.23549833  0.03165673    -0.78400
C533        C  0.55466061  0.24013714  0.05868267     0.82400
N534        N  0.57849864  0.24538549  0.07107456    -0.80100
O535        O  0.87278400  0.23898629  0.17094565    -0.86800
O536        O  0.87739597  0.23567733  0.32382285    -0.87000
O537        O  0.90988632  0.27994676  0.24642757    -0.88700
O538        O  0.90503118  0.19242154  0.24613602    -0.87400
O539        O  0.87123368  0.16111238  0.24399525    -0.87000
O540        O  0.87860613  0.31387757  0.24883515    -0.88400
O541        O  0.90897649  0.23509318  0.29004732    -0.86800
O542        O  0.90649346  0.23673935  0.20257402    -0.86400
Zr543      Zr  0.88548261  0.23732125  0.24704064     2.84300
O544        O  0.85798037  0.21100962  0.27485465    -1.08400
O545        O  0.85920880  0.26621051  0.22073465    -1.09100
C546        C  0.89774663  0.23747480  0.17802650     1.06300
C547        C  0.90192910  0.23446040  0.31510848     1.06200
C548        C  0.90300385  0.30502529  0.24760969     1.09200
C549        C  0.89628018  0.16799921  0.24416818     1.07000
H550        H  0.87275070  0.27593449  0.28688774     0.32600
O551        O  0.86071632  0.26538394  0.27578143    -1.29400
H552        H  0.86677795  0.20014942  0.20819490     0.32200
O553        O  0.85650819  0.21168317  0.22004573    -1.31000
O554        O  0.78896685  0.24077698  0.32616246    -0.81200
O555        O  0.78587557  0.24367025  0.17260027    -0.88300
O556        O  0.83512847  0.31540519  0.29332042    -0.86900
O557        O  0.83091295  0.16261025  0.29143858    -0.86900
O558        O  0.82523189  0.16445394  0.20347989    -0.86600
O559        O  0.83523776  0.31660962  0.20613774    -0.86500
O560        O  0.75762467  0.28730127  0.25148734    -0.86800
O561        O  0.75291593  0.19867590  0.24996644    -0.86300
O562        O  0.79176580  0.31846391  0.25018957    -0.87400
O563        O  0.78456859  0.16495011  0.24977398    -0.86500
O564        O  0.83493444  0.28262509  0.32599109    -0.86900
O565        O  0.83111083  0.28475337  0.17284792    -0.86600
O566        O  0.82613387  0.19760169  0.17116395    -0.86300
O567        O  0.83111242  0.19516035  0.32438968    -0.86700
O568        O  0.75575240  0.24232338  0.29390956    -0.87000
O569        O  0.75433315  0.24479060  0.20641084    -0.88300
Zr570      Zr  0.83267477  0.23912951  0.30313712     2.83100
Zr571      Zr  0.82975990  0.24064784  0.19423021     2.83500
Zr572      Zr  0.83399782  0.29374732  0.24938596     2.84100
Zr573      Zr  0.82891559  0.18547953  0.24784565     2.83400
Zr574      Zr  0.77702590  0.24198027  0.24988668     2.84200
O575        O  0.80202505  0.21390633  0.22147416    -1.08900
O576        O  0.80597563  0.26773577  0.27691742    -1.08400
C577        C  0.76402756  0.24185114  0.31858171     1.06300
C578        C  0.76144126  0.24498217  0.18134117     1.08900
C579        C  0.83531127  0.30743302  0.31809353     1.06400
C580        C  0.83127587  0.17042802  0.31632765     1.06800
C581        C  0.82477518  0.17278663  0.17878306     1.06400
C582        C  0.83329842  0.30930536  0.18123325     1.05900
C583        C  0.76668910  0.31176709  0.25115952     1.06400
C584        C  0.76005796  0.17355401  0.25001422     1.05900
H585        H  0.79372693  0.28063705  0.21171924     0.32500
O586        O  0.80459677  0.26859987  0.22247112    -1.30000
H587        H  0.79227900  0.20242165  0.28766210     0.32600
O588        O  0.80364360  0.21334934  0.27626268    -1.31400
C589        C  0.55157808  0.43594335  0.76030549     0.79900
N590        N  0.57500973  0.42178306  0.76051072    -0.78400
C591        C  0.59905160  0.43488697  0.75980423     0.82300
N592        N  0.59944113  0.46219837  0.75871793    -0.78400
C593        C  0.57607806  0.47634875  0.75830971     0.82400
N594        N  0.55219775  0.46319203  0.75911652    -0.80100
C595        C  0.55087280  0.22981316  0.94753371     0.79900
N596        N  0.55221627  0.23117027  0.97485796    -0.78400
C597        C  0.57645411  0.23292965  0.98749165     0.82300
N598        N  0.59945714  0.23327515  0.97255182    -0.78400
C599        C  0.59839214  0.23222298  0.94509343     0.82400
N600        N  0.57392048  0.23070555  0.93282059    -0.80100
C601        C  0.63624555  0.24180032  0.52058507     0.79900
N602        N  0.60916427  0.23850072  0.52139140    -0.78400
C603        C  0.59447874  0.23992005  0.49838898     0.82300
N604        N  0.60701093  0.24434953  0.47440603    -0.78400
C605        C  0.63415046  0.24735713  0.47336333     0.82400
N606        N  0.64854673  0.24617455  0.49656997    -0.80100
C607        C  0.83255030  0.04809409  0.47677304     0.79900
N608        N  0.83145936  0.02075928  0.47632444    -0.78400
C609        C  0.83135612  0.00667548  0.49982102     0.82300
N610        N  0.83219134  0.02000650  0.52373716    -0.78400
C611        C  0.83336220  0.04729188  0.52413629     0.82400
N612        N  0.83361114  0.06122921  0.50069070    -0.80100
O613        O  0.86906600  0.24481702  0.82685321    -0.86800
O614        O  0.87034018  0.23929803  0.67217779    -0.87000
O615        O  0.90324248  0.19736152  0.75133560    -0.88700
O616        O  0.90471108  0.28332567  0.74406990    -0.87400
O617        O  0.87323361  0.31676625  0.74639272    -0.87000
O618        O  0.87016748  0.16492599  0.75025939    -0.88400
O619        O  0.90246560  0.23609442  0.70510592    -0.86800
O620        O  0.90226058  0.24355788  0.79454122    -0.86400
Zr621      Zr  0.88126792  0.24096822  0.74974881     2.84300
O622        O  0.85505615  0.26827010  0.72169604    -1.08400
O623        O  0.85349276  0.21535612  0.77790986    -1.09100
C624        C  0.89390144  0.24468516  0.81928706     1.06300
C625        C  0.89490377  0.23667562  0.68006281     1.06200
C626        C  0.89505499  0.17272872  0.75031491     1.09200
C627        C  0.89778434  0.30830485  0.74396350     1.07000
H628        H  0.86476105  0.20164429  0.71219208     0.32600
O629        O  0.85393215  0.21352470  0.72313112    -1.29400
H630        H  0.86586117  0.28113344  0.78683970     0.32200
O631        O  0.85442791  0.26968637  0.77599910    -1.31000
O632        O  0.78431406  0.24097362  0.67270617    -0.86800
O633        O  0.78127935  0.24406479  0.82513973    -0.88300
O634        O  0.82360757  0.16447345  0.70779404    -0.86900
O635        O  0.82989660  0.31669401  0.70294693    -0.86900
O636        O  0.82882616  0.32058541  0.79113118    -0.86600
O637        O  0.82542100  0.16840503  0.79596769    -0.86500
O638        O  0.75010309  0.19856301  0.74865972    -0.86800
O639        O  0.75136571  0.28680079  0.74863356    -0.86300
O640        O  0.78271443  0.16621097  0.75287699    -0.87400
O641        O  0.78422553  0.31931235  0.74676040    -0.86500
O642        O  0.82742320  0.19640033  0.67481628    -0.86900
O643        O  0.82860112  0.20155560  0.82765396    -0.86600
O644        O  0.82767130  0.28838535  0.82432415    -0.86300
O645        O  0.82859864  0.28312542  0.67112248    -0.86700
O646        O  0.75091724  0.24231300  0.70469016    -0.87000
O647        O  0.74909746  0.24385998  0.79179467    -0.88300
Zr648      Zr  0.82745419  0.24071614  0.69538733     2.83100
Zr649      Zr  0.82601381  0.24401024  0.80364734     2.83500
Zr650      Zr  0.82632278  0.18786134  0.75104273     2.84100
Zr651      Zr  0.82807053  0.29669891  0.74788838     2.83400
Zr652      Zr  0.77255635  0.24263329  0.74873349     2.84200
O653        O  0.79963212  0.27082730  0.77541610    -1.08900
O654        O  0.79951911  0.21424967  0.72252464    -1.08400
C655        C  0.75948321  0.24166310  0.68012029     1.06300
C656        C  0.75654682  0.24407843  0.81674789     1.08900
C657        C  0.82513863  0.17181349  0.68285681     1.06400
C658        C  0.82941114  0.30808880  0.67832053     1.06800
C659        C  0.82875484  0.31304110  0.81611514     1.06400
C660        C  0.82745724  0.17661949  0.82058116     1.05900
C661        C  0.75797528  0.17381365  0.75107951     1.06400
C662        C  0.75935179  0.31154611  0.74752412     1.05900
H663        H  0.78750872  0.20521798  0.78875603     0.32500
O664        O  0.79891395  0.21596339  0.77722771    -1.30000
H665        H  0.78944686  0.28030120  0.70955826     0.32600
O666        O  0.80033208  0.26919229  0.72126056    -1.31400
O667        O  0.27996624  0.23998558  0.17743277    -0.86800
O668        O  0.28752091  0.24191700  0.33048172    -0.87000
O669        O  0.25136144  0.19833125  0.25467908    -0.88700
O670        O  0.25068265  0.28627540  0.25606403    -0.87400
O671        O  0.28355395  0.31880862  0.25404910    -0.87000
O672        O  0.28393062  0.16543692  0.25399379    -0.88400
O673        O  0.25328040  0.24152989  0.29933591    -0.86800
O674        O  0.24862707  0.24154338  0.21137294    -0.86400
Zr675      Zr  0.27309963  0.24236019  0.25434069     2.84300
O676        O  0.30189926  0.26951433  0.28003254    -1.08400
O677        O  0.29899006  0.21489504  0.22605808    -1.09100
C678        C  0.25547859  0.24039104  0.18620867     1.06300
C679        C  0.26239889  0.24123252  0.32376639     1.06200
C680        C  0.25921515  0.17350754  0.25443052     1.09200
C681        C  0.25875773  0.31106667  0.25569050     1.07000
H682        H  0.29090184  0.20340082  0.29238786     0.32600
O683        O  0.30136908  0.21478570  0.28057458    -1.29400
H684        H  0.28684540  0.28058074  0.21483542     0.32200
O685        O  0.29876237  0.26954730  0.22555880    -1.31000
O686        O  0.37506351  0.24202024  0.32605240    -0.86800
O687        O  0.36764045  0.24393476  0.17318421    -0.88300
O688        O  0.33279460  0.16477595  0.29533836    -0.86900
O689        O  0.32820248  0.31844364  0.29548705    -0.86900
O690        O  0.32445119  0.31892712  0.20682176    -0.86600
O691        O  0.32442442  0.16597413  0.20825322    -0.86500
O692        O  0.40414996  0.19860604  0.24786129    -0.86800
O693        O  0.40321085  0.28615357  0.24702090    -0.86300
O694        O  0.37138801  0.16607621  0.24801847    -0.87400
O695        O  0.37146759  0.31962381  0.24911134    -0.86500
O696        O  0.33400330  0.19748574  0.32801014    -0.86900
O697        O  0.32438286  0.19826602  0.17511103    -0.86600
O698        O  0.32184634  0.28537878  0.17499869    -0.86300
O699        O  0.33116885  0.28587704  0.32826988    -0.86700
O700        O  0.40608574  0.24222544  0.29180651    -0.87000
O701        O  0.40161639  0.24367131  0.20462976    -0.88300
Zr702      Zr  0.33015513  0.24202180  0.30619282     2.83100
Zr703      Zr  0.32480578  0.24197860  0.19743356     2.83500
Zr704      Zr  0.32756419  0.18780526  0.25204161     2.84100
Zr705      Zr  0.32748200  0.29696697  0.25121636     2.83400
Zr706      Zr  0.38151357  0.24230976  0.24921700     2.84200
O707        O  0.35336251  0.26952518  0.22293991    -1.08900
O708        O  0.35613473  0.21489656  0.27788500    -1.08400
C709        C  0.39944562  0.24183550  0.31698745     1.06300
C710        C  0.39272020  0.24439359  0.18017785     1.08900
C711        C  0.33514332  0.17255574  0.32013065     1.06400
C712        C  0.32998707  0.31063132  0.32030033     1.06800
C713        C  0.32231308  0.31038327  0.18218993     1.06400
C714        C  0.32387581  0.17360027  0.18336281     1.05900
C715        C  0.39621639  0.17379089  0.24730375     1.06400
C716        C  0.39609464  0.31116595  0.24772139     1.05900
H717        H  0.36413768  0.20370208  0.21133112     0.32500
O718        O  0.35340723  0.21478811  0.22320136    -1.30000
H719        H  0.36760452  0.28099466  0.28832517     0.32600
O720        O  0.35581067  0.26973927  0.27766320    -1.31400
C721        C  0.82473054  0.15079869  0.66146648     0.01000
C722        C  0.83787773  0.12563280  0.66514265     0.03800
C723        C  0.84031250  0.10764292  0.64333080    -0.12200
C724        C  0.82974312  0.11452127  0.61797083     0.23100
C725        C  0.81564993  0.13878694  0.61442888    -0.12800
C726        C  0.81256816  0.15661383  0.63618027     0.04500
C727        C  0.83183917  0.09545576  0.59526011     0.27000
C728        C  0.85502581  0.09523649  0.57893779    -0.13500
C729        C  0.85584845  0.07870127  0.55596420     0.05100
C730        C  0.83370735  0.06207164  0.54970135    -0.09500
C731        C  0.81097872  0.06149453  0.56666958     0.05900
C732        C  0.80996531  0.07839861  0.58934140    -0.13800
Br733      Br  0.80023863  0.14731046  0.57958469    -0.05900
Br734      Br  0.85291849  0.11494379  0.69949543    -0.00300
Br735      Br  0.88725021  0.07882203  0.53298963     0.00200
Br736      Br  0.77817894  0.07922702  0.61175999    -0.04200
Br737      Br  0.78975571  0.18783851  0.63116162     0.00300
Br738      Br  0.85800920  0.07325690  0.64790677    -0.03500
Br739      Br  0.88527197  0.11805896  0.58773395    -0.04400
Br740      Br  0.78049593  0.03894609  0.55800530    -0.00400
C741        C  0.65247797  0.23956448  0.54540344     0.01000
C742        C  0.64471068  0.25348485  0.56908515     0.03800
C743        C  0.66098773  0.25218729  0.59221161    -0.12200
C744        C  0.68528375  0.23770703  0.59151993     0.23100
C745        C  0.69270986  0.22313050  0.56837111    -0.12800
C746        C  0.67621398  0.22376699  0.54539422     0.04500
C747        C  0.70373981  0.23899120  0.61472365     0.27000
C748        C  0.72166728  0.26084442  0.61701885    -0.13500
C749        C  0.73961229  0.26202993  0.63882218     0.05100
C750        C  0.73939146  0.24147893  0.65847256    -0.09500
C751        C  0.72116874  0.21980256  0.65632616     0.05900
C752        C  0.70348151  0.21845803  0.63427839    -0.13800
Br753      Br  0.72566824  0.20242902  0.56828352    -0.05900
Br754      Br  0.61290613  0.27590110  0.56981316    -0.00300
Br755      Br  0.76414848  0.29205755  0.64184266     0.00200
Br756      Br  0.67941836  0.18817966  0.63027856    -0.04200
Br757      Br  0.68597221  0.20193955  0.51454612     0.00300
Br758      Br  0.65042921  0.27052834  0.62494727    -0.03500
Br759      Br  0.72184202  0.28888232  0.58996143    -0.04400
Br760      Br  0.72145919  0.19113686  0.68265966    -0.00400
C761        C  0.62340783  0.23422507  0.92830695     0.01000
C762        C  0.62580518  0.21885933  0.90427994     0.03800
C763        C  0.64756840  0.22291132  0.88660933    -0.12200
C764        C  0.66866111  0.24046991  0.89370499     0.23100
C765        C  0.66713120  0.25511973  0.91806145    -0.12800
C766        C  0.64440039  0.25251179  0.93504636     0.04500
C767        C  0.69256448  0.24267718  0.87558064     0.27000
C768        C  0.71080224  0.22092794  0.87361553    -0.13500
C769        C  0.73113994  0.22109835  0.85383040     0.05100
C770        C  0.73483234  0.24388389  0.83726444    -0.09500
C771        C  0.71671132  0.26572149  0.83927318     0.05900
C772        C  0.69546093  0.26497728  0.85814096    -0.13800
Br773      Br  0.69616457  0.27909223  0.92787726    -0.05900
Br774      Br  0.60092582  0.19025791  0.89598889    -0.00300
Br775      Br  0.75134086  0.18865374  0.84683802     0.00200
Br776      Br  0.66950992  0.29390200  0.85919916    -0.04200
Br777      Br  0.64210521  0.27522216  0.96668852     0.00300
Br778      Br  0.64826685  0.20472794  0.85204005    -0.03500
Br779      Br  0.70728328  0.19035544  0.89746726    -0.04400
Br780      Br  0.72037917  0.29628696  0.81548254    -0.00400
C781        C  0.73797878  0.33243725  0.74726313     0.01000
C782        C  0.73913289  0.35463889  0.76518133     0.03800
C783        C  0.71754224  0.37298313  0.76646269    -0.12200
C784        C  0.69445430  0.36890079  0.75046441     0.23100
C785        C  0.69347843  0.34725109  0.73213343    -0.12800
C786        C  0.71530431  0.32932136  0.73019180     0.04500
C787        C  0.67076622  0.38682358  0.75353683     0.27000
C788        C  0.65270146  0.38268775  0.77502228    -0.13500
C789        C  0.63000967  0.39936165  0.77784394     0.05100
C790        C  0.62450652  0.41943355  0.75845084    -0.09500
C791        C  0.64296049  0.42389412  0.73716847     0.05900
C792        C  0.66607254  0.40764409  0.73482559    -0.13800
Br793      Br  0.66181251  0.34191304  0.71007881    -0.05900
Br794      Br  0.76916491  0.35917664  0.78955153    -0.00300
Br795      Br  0.60764861  0.39578363  0.80939120     0.00200
Br796      Br  0.69104168  0.41321764  0.70550450    -0.04200
Br797      Br  0.71412731  0.30108304  0.70334139     0.00300
Br798      Br  0.71917505  0.40357363  0.79053026    -0.03500
Br799      Br  0.65866770  0.35353052  0.80012583    -0.04400
Br800      Br  0.63641430  0.45144080  0.71041862    -0.00400
C801        C  0.74294508  0.24268451  0.33964927     0.01000
C802        C  0.74174788  0.22255978  0.35976284     0.03800
C803        C  0.72150090  0.22353947  0.37963044    -0.12200
C804        C  0.70195556  0.24416475  0.37903252     0.23100
C805        C  0.70221953  0.26328374  0.35809285    -0.12800
C806        C  0.72304965  0.26305750  0.33891892     0.04500
C807        C  0.68246862  0.24702153  0.40156143     0.27000
C808        C  0.65957884  0.23035101  0.40299587    -0.13500
C809        C  0.64296670  0.23101305  0.42601468     0.05100
C810        C  0.64859642  0.24933186  0.44724418    -0.09500
C811        C  0.67018615  0.26771620  0.44448338     0.05900
C812        C  0.68733904  0.26619440  0.42197913    -0.13800
Br813      Br  0.67386024  0.28978670  0.35583878    -0.05900
Br814      Br  0.76705841  0.19298750  0.35959309    -0.00300
Br815      Br  0.61411577  0.20503349  0.42890679     0.00200
Br816      Br  0.71804407  0.28999855  0.41935721    -0.04200
Br817      Br  0.72514426  0.29195260  0.31291532     0.00300
Br818      Br  0.72055543  0.19669982  0.40781078    -0.03500
Br819      Br  0.65134528  0.20635843  0.37342765    -0.04400
Br820      Br  0.67614555  0.29555008  0.47115261    -0.00400
C821        C  0.83189641  0.06365671  0.45157787     0.01000
C822        C  0.81188793  0.08351139  0.44781044     0.03800
C823        C  0.81171924  0.09904787  0.42418302    -0.12200
C824        C  0.83122784  0.09449787  0.40412248     0.23100
C825        C  0.85114962  0.07463618  0.40775889    -0.12800
C826        C  0.85176006  0.05949576  0.43169342     0.04500
C827        C  0.83231692  0.11256169  0.38053280     0.27000
C828        C  0.81483436  0.10864563  0.35850621    -0.13500
C829        C  0.81410273  0.12767281  0.33747182     0.05100
C830        C  0.83225829  0.14964473  0.33762898    -0.09500
C831        C  0.85071021  0.15254839  0.35919282     0.05900
C832        C  0.84994640  0.13469468  0.38104514    -0.13800
Br833      Br  0.87812208  0.06902128  0.38029989    -0.05900
Br834      Br  0.78453325  0.08959352  0.47485737    -0.00300
Br835      Br  0.78662109  0.12468159  0.31003614     0.00200
Br836      Br  0.87227767  0.14116536  0.41238319    -0.04200
Br837      Br  0.88125074  0.03500860  0.43826580     0.00300
Br838      Br  0.78545601  0.12742469  0.41965920    -0.03500
Br839      Br  0.79149373  0.07753950  0.35773487    -0.04400
Br840      Br  0.87800705  0.18021387  0.35879550    -0.00400
C841        C  0.52919196  0.24006932  0.07450203     0.01000
C842        C  0.52788542  0.22672684  0.09973791     0.03800
C843        C  0.50434478  0.22824341  0.11548713    -0.12200
C844        C  0.48168508  0.24229173  0.10584624     0.23100
C845        C  0.48254126  0.25495317  0.08051021    -0.12800
C846        C  0.50619795  0.25402825  0.06491236     0.04500
C847        C  0.45718379  0.24430546  0.12279782     0.27000
C848        C  0.43723384  0.22414244  0.12154388    -0.13500
C849        C  0.41496554  0.22513287  0.13908248     0.05100
C850        C  0.41327522  0.24570171  0.15870253    -0.09500
C851        C  0.43269298  0.26651076  0.15905884     0.05900
C852        C  0.45428219  0.26607536  0.14077474    -0.13800
Br853      Br  0.45128083  0.27424871  0.06769700    -0.05900
Br854      Br  0.55755216  0.20495222  0.11241595    -0.00300
Br855      Br  0.38758598  0.19757491  0.13695917     0.00200
Br856      Br  0.48007675  0.29520974  0.14032640    -0.04200
Br857      Br  0.50696728  0.27338590  0.03117814     0.00300
Br858      Br  0.50306122  0.21144705  0.15063291    -0.03500
Br859      Br  0.44098501  0.19479604  0.09627857    -0.04400
Br860      Br  0.42966176  0.29597926  0.18425779    -0.00400
C861        C  0.73959288  0.24645736  0.16118099     0.01000
C862        C  0.73961402  0.26659851  0.14099754     0.03800
C863        C  0.71800891  0.26831529  0.12264687    -0.12200
C864        C  0.69640829  0.24997376  0.12439490     0.23100
C865        C  0.69648388  0.22983552  0.14442791    -0.12800
C866        C  0.71805241  0.22795294  0.16264243     0.04500
C867        C  0.67372227  0.25130170  0.10493639     0.27000
C868        C  0.65280425  0.27007771  0.10867718    -0.13500
C869        C  0.63041091  0.26995145  0.09123734     0.05100
C870        C  0.62780381  0.24968283  0.07128996    -0.09500
C871        C  0.64922893  0.23132564  0.06718197     0.05900
C872        C  0.67237679  0.23266541  0.08352999    -0.13800
Br873      Br  0.66683449  0.20478261  0.14699624    -0.05900
Br874      Br  0.76844510  0.29267450  0.13903869    -0.00300
Br875      Br  0.60404485  0.29840036  0.09399686     0.00200
Br876      Br  0.70201420  0.20818457  0.07746900    -0.04200
Br877      Br  0.71847489  0.19904200  0.18880156     0.00300
Br878      Br  0.71777625  0.29584516  0.09513799    -0.03500
Br879      Br  0.65426653  0.29501245  0.13861578    -0.04400
Br880      Br  0.64648162  0.20274917  0.04082545    -0.00400
C881        C  0.53457293  0.41513355  0.25261250     0.01000
C882        C  0.51467840  0.41494987  0.27282355     0.03800
C883        C  0.49067521  0.40044902  0.26889538    -0.12200
C884        C  0.48718630  0.38448207  0.24555107     0.23100
C885        C  0.50727506  0.38436999  0.22542473    -0.12800
C886        C  0.53069187  0.40011647  0.22872680     0.04500
C887        C  0.46408606  0.36538471  0.24431992     0.27000
C888        C  0.46448883  0.34253563  0.26109995    -0.13500
C889        C  0.44153189  0.32624474  0.26355918     0.05100
C890        C  0.41851346  0.33113641  0.24742305    -0.09500
C891        C  0.41840427  0.35364890  0.22983203     0.05900
C892        C  0.44107088  0.37087882  0.22854806    -0.13800
Br893      Br  0.50319786  0.36190340  0.19388673    -0.05900
Br894      Br  0.52137341  0.43252077  0.30695229    -0.00300
Br895      Br  0.44133126  0.29857284  0.29097025     0.00200
Br896      Br  0.44087618  0.40183570  0.20500060    -0.04200
Br897      Br  0.55740612  0.40129129  0.20048415     0.00300
Br898      Br  0.46273023  0.40176629  0.29594604    -0.03500
Br899      Br  0.49691087  0.33341562  0.28071097    -0.04400
Br900      Br  0.38787681  0.36058899  0.20671960    -0.00400
C901        C  0.63298389  0.41973997  0.26308268     0.01000
C902        C  0.65463909  0.42833667  0.24661021     0.03800
C903        C  0.67896289  0.41374214  0.24640844    -0.12200
C904        C  0.68147077  0.39008769  0.26184353     0.23100
C905        C  0.66061589  0.38233587  0.27938343    -0.12800
C906        C  0.63649756  0.39717551  0.28017171     0.04500
C907        C  0.70472532  0.37181235  0.25765963     0.27000
C908        C  0.70329288  0.35193372  0.23739683    -0.13500
C909        C  0.72435776  0.33330167  0.23425364     0.05100
C910        C  0.74657185  0.33379289  0.25204571    -0.09500
C911        C  0.74864152  0.35467331  0.27143657     0.05900
C912        C  0.72762913  0.37352248  0.27430134    -0.13800
Br913      Br  0.66513804  0.35094243  0.30194688    -0.05900
Br914      Br  0.65063770  0.45855716  0.22238101    -0.00300
Br915      Br  0.72333103  0.30815208  0.20450242     0.00200
Br916      Br  0.72947324  0.40104128  0.30177417    -0.04200
Br917      Br  0.60862259  0.38662495  0.30517778     0.00300
Br918      Br  0.70886782  0.42563305  0.22459896    -0.03500
Br919      Br  0.67180861  0.34962588  0.21460822    -0.04400
Br920      Br  0.77952346  0.35714956  0.29498028    -0.00400
C921        C  0.91956496  0.32892967  0.74110607     0.01000
C922        C  0.94620526  0.32418321  0.75083858     0.03800
C923        C  0.96492102  0.34547578  0.75184088    -0.12200
C924        C  0.95807917  0.37090220  0.74153540     0.23100
C925        C  0.93279146  0.37508299  0.72957121    -0.12800
C926        C  0.91372423  0.35418031  0.72894800     0.04500
C927        C  0.97799951  0.39304107  0.74161408     0.27000
C928        C  0.97703027  0.41294829  0.76184283    -0.13500
C929        C  0.99366323  0.43577055  0.75994473     0.05100
C930        C  0.01065707  0.43906106  0.73739962    -0.09500
C931        C  0.01325837  0.41801755  0.71839709     0.05900
C932        C  0.99681761  0.39504773  0.72047080    -0.13800
Br933      Br  0.92450891  0.40972225  0.71374214    -0.05900
Br934      Br  0.95897729  0.28883570  0.76141121    -0.00300
Br935      Br  0.99423109  0.46184345  0.78889307     0.00200
Br936      Br  0.99909683  0.36676511  0.69375492    -0.04200
Br937      Br  0.88108559  0.35989037  0.70839376     0.00300
Br938      Br  0.00019208  0.34016730  0.76750419    -0.03500
Br939      Br  0.95228069  0.40921651  0.79161070    -0.04400
Br940      Br  0.03841889  0.42090514  0.68891113    -0.00400
C941        C  0.00777584  0.53759315  0.73202485     0.01000
C942        C  0.99010260  0.54583242  0.71133939     0.03800
C943        C  0.97368417  0.56874940  0.71501260    -0.12200
C944        C  0.97432606  0.58298844  0.73967947     0.23100
C945        C  0.99242671  0.57502889  0.76008673    -0.12800
C946        C  0.00944841  0.55271081  0.75607227     0.04500
C947        C  0.95521720  0.60562146  0.74460982     0.27000
C948        C  0.96282521  0.63235397  0.73914795    -0.13500
C949        C  0.94435754  0.65369618  0.74289541     0.05100
C950        C  0.91763704  0.64830452  0.75205084    -0.09500
C951        C  0.91132937  0.62151390  0.76013703     0.05900
C952        C  0.92975424  0.60034531  0.75574853    -0.13800
Br953      Br  0.99311025  0.59415400  0.79398009    -0.05900
Br954      Br  0.98870723  0.52589359  0.67793113    -0.00300
Br955      Br  0.95710539  0.68984811  0.73565841     0.00200
Br956      Br  0.92039115  0.56375817  0.76529616    -0.04200
Br957      Br  0.03438643  0.54218540  0.78404968     0.00300
Br958      Br  0.95002664  0.58059116  0.68649626    -0.03500
Br959      Br  0.99892589  0.63944274  0.72647452    -0.04400
Br960      Br  0.87878783  0.61341491  0.77990220    -0.00400
C961        C  0.82789839  0.43847723  0.56557493     0.01000
C962        C  0.84898842  0.43395837  0.58409086     0.03800
C963        C  0.84911963  0.41056709  0.60001665    -0.12200
C964        C  0.82866744  0.39113630  0.59686679     0.23100
C965        C  0.80846279  0.39480962  0.57721145    -0.12800
C966        C  0.80791421  0.41860036  0.56173340     0.04500
C967        C  0.82723240  0.36831588  0.61608155     0.27000
C968        C  0.84492733  0.34626062  0.61361810    -0.13500
C969        C  0.84618559  0.32671960  0.63418440     0.05100
C970        C  0.82875389  0.32857487  0.65668528    -0.09500
C971        C  0.81014656  0.35005352  0.65833825     0.05900
C972        C  0.80978852  0.37008806  0.63838316    -0.13800
Br973      Br  0.78094444  0.36772696  0.57246673    -0.05900
Br974      Br  0.87811246  0.45955827  0.58733283    -0.00300
Br975      Br  0.87332586  0.29887690  0.63234620     0.00200
Br976      Br  0.78592201  0.40061023  0.64209814    -0.04200
Br977      Br  0.77872767  0.42469638  0.53673656     0.00300
Br978      Br  0.87656912  0.40577804  0.62725103    -0.03500
Br979      Br  0.86783332  0.34338265  0.58228924    -0.04400
Br980      Br  0.78424837  0.35191916  0.68738340    -0.00400
C981        C  0.82329428  0.53705736  0.56963755     0.01000
C982        C  0.84311886  0.55713783  0.56589023     0.03800
C983        C  0.84351923  0.57998312  0.58272896    -0.12200
C984        C  0.82464992  0.58246759  0.60378073     0.23100
C985        C  0.80427851  0.56294897  0.60691987    -0.12800
C986        C  0.80338127  0.54047645  0.58964135     0.04500
C987        C  0.82650441  0.60532957  0.62296660     0.27000
C988        C  0.84544780  0.60461859  0.64414310    -0.13500
C989        C  0.84676908  0.62595430  0.66281225     0.05100
C990        C  0.82868658  0.64784516  0.66073694    -0.09500
C991        C  0.80977214  0.64846234  0.63943242     0.05900
C992        C  0.80902372  0.62748690  0.62035366    -0.13800
Br993      Br  0.77771933  0.56694529  0.63509033    -0.05900
Br994      Br  0.87072677  0.55290239  0.53879341    -0.00300
Br995      Br  0.87405486  0.62539788  0.69061527     0.00200
Br996      Br  0.78395117  0.62891906  0.59057351    -0.04200
Br997      Br  0.77410985  0.51501890  0.59265509     0.00300
Br998      Br  0.86994292  0.60797908  0.57716377    -0.03500
Br999      Br  0.86943969  0.57418736  0.64767096    -0.04400
Br1000     Br  0.78356470  0.67697340  0.63708103    -0.00400
C1001       C  0.73241653  0.74238502  0.83324743     0.01000
C1002       C  0.73312861  0.72484024  0.85567118     0.03800
C1003       C  0.71362862  0.72706307  0.87597232    -0.12200
C1004       C  0.69212863  0.74523152  0.87293945     0.23100
C1005       C  0.69117660  0.76272862  0.85062966    -0.12800
C1006       C  0.71149303  0.76157733  0.83094102     0.04500
C1007       C  0.66924531  0.74376427  0.89180743     0.27000
C1008       C  0.65123415  0.72198568  0.88968759    -0.13500
C1009       C  0.63078489  0.71895845  0.90878439     0.05100
C1010       C  0.62571369  0.73959980  0.92759523    -0.09500
C1011       C  0.64340614  0.76178512  0.92945225     0.05900
C1012       C  0.66597739  0.76312692  0.91235597    -0.13800
Br1013     Br  0.66207657  0.78833919  0.84724197    -0.05900
Br1014     Br  0.75931754  0.69613521  0.85776032    -0.00300
Br1015     Br  0.61163319  0.68531006  0.91075416     0.00200
Br1016     Br  0.69244923  0.79122056  0.91692941    -0.04200
Br1017     Br  0.71078963  0.78698922  0.80150618     0.00300
Br1018     Br  0.71633990  0.70544233  0.90826681    -0.03500
Br1019     Br  0.65401030  0.69667147  0.86013557    -0.04400
Br1020     Br  0.63614297  0.79091627  0.95418186    -0.00400
C1021       C  0.73743844  0.64996834  0.74655882     0.01000
C1022       C  0.74090008  0.62501379  0.73302200     0.03800
C1023       C  0.72024044  0.60561004  0.73355906    -0.12200
C1024       C  0.69585497  0.61133667  0.74679592     0.23100
C1025       C  0.69203761  0.63628060  0.75965469    -0.12800
C1026       C  0.71283244  0.65537287  0.76002704     0.04500
C1027       C  0.67345181  0.59180350  0.74633481     0.27000
C1028       C  0.65645544  0.59060787  0.72364285    -0.13500
C1029       C  0.63378514  0.57376536  0.72398096     0.05100
C1030       C  0.62681246  0.55990722  0.74776420    -0.09500
C1031       C  0.64405579  0.56073723  0.77034135     0.05900
C1032       C  0.66765807  0.57631597  0.76943887    -0.13800
Br1033     Br  0.65778004  0.64443356  0.77633732    -0.05900
Br1034     Br  0.77286364  0.61768436  0.71199572    -0.00300
Br1035     Br  0.61345527  0.56845051  0.69135317     0.00200
Br1036     Br  0.69128556  0.57779200  0.80034213    -0.04200
Br1037     Br  0.70714219  0.68829877  0.78017984     0.00300
Br1038     Br  0.72492379  0.57130227  0.71570448    -0.03500
Br1039     Br  0.66322466  0.61352197  0.69287796    -0.04400
Br1040     Br  0.63466839  0.54169781  0.80297021    -0.00400
C1041       C  0.83026300  0.82783570  0.65791317     0.01000
C1042       C  0.81741736  0.85317241  0.66197322     0.03800
C1043       C  0.81680373  0.87240307  0.64106118    -0.12200
C1044       C  0.82899415  0.86676088  0.61611891     0.23100
C1045       C  0.84156253  0.84177903  0.61178486    -0.12800
C1046       C  0.84228338  0.82235595  0.63242714     0.04500
C1047       C  0.82775808  0.88659173  0.59379645     0.27000
C1048       C  0.80725267  0.88447038  0.57429663    -0.13500
C1049       C  0.80735042  0.90149820  0.55168221     0.05100
C1050       C  0.82811635  0.92060394  0.54831734    -0.09500
C1051       C  0.84792845  0.92368151  0.56857907     0.05900
C1052       C  0.84788835  0.90643356  0.59115508    -0.13800
Br1053     Br  0.85730424  0.83411197  0.57691509    -0.05900
Br1054     Br  0.79876149  0.86170991  0.69518175    -0.00300
Br1055     Br  0.77841700  0.89913891  0.52570930     0.00200
Br1056     Br  0.87612370  0.90885330  0.61784527    -0.04200
Br1057     Br  0.86038310  0.78866161  0.62480495     0.00300
Br1058     Br  0.79825685  0.90629762  0.64591586    -0.03500
Br1059     Br  0.77960500  0.85739577  0.57813422    -0.04400
Br1060     Br  0.87589187  0.95047762  0.56499830    -0.00400
C1061       C  0.65297538  0.73062201  0.54322671     0.01000
C1062       C  0.64436984  0.74379647  0.56708465     0.03800
C1063       C  0.66035749  0.74273157  0.59044887    -0.12200
C1064       C  0.68584192  0.73048515  0.58950034     0.23100
C1065       C  0.69462226  0.71755747  0.56581586    -0.12800
C1066       C  0.67786306  0.71678939  0.54299272     0.04500
C1067       C  0.70430437  0.73276076  0.61275000     0.27000
C1068       C  0.72290020  0.75415782  0.61367473    -0.13500
C1069       C  0.74201126  0.75540688  0.63453075     0.05100
C1070       C  0.74200963  0.73563974  0.65498422    -0.09500
C1071       C  0.72286815  0.71455067  0.65435808     0.05900
C1072       C  0.70412542  0.71307094  0.63314871    -0.13800
Br1073     Br  0.73003391  0.70152338  0.56460611    -0.05900
Br1074     Br  0.61211733  0.76561720  0.56760008    -0.00300
Br1075     Br  0.76777355  0.78456332  0.63519221     0.00200
Br1076     Br  0.67834207  0.68397484  0.63169195    -0.04200
Br1077     Br  0.68884222  0.69572966  0.51206996     0.00300
Br1078     Br  0.64771633  0.75846740  0.62375935    -0.03500
Br1079     Br  0.72197338  0.78178294  0.58624556    -0.04400
Br1080     Br  0.72325284  0.68661942  0.68147311    -0.00400
C1081       C  0.73746685  0.74496952  0.33633222     0.01000
C1082       C  0.73745177  0.72592782  0.35742100     0.03800
C1083       C  0.71849307  0.72790145  0.37832372    -0.12200
C1084       C  0.69821033  0.74768950  0.37723599     0.23100
C1085       C  0.69690839  0.76554896  0.35526485    -0.12800
C1086       C  0.71668831  0.76448647  0.33498203     0.04500
C1087       C  0.67826210  0.74933157  0.39931687     0.27000
C1088       C  0.65581103  0.73203694  0.39929694    -0.13500
C1089       C  0.63971288  0.72976684  0.42253515     0.05100
C1090       C  0.64564579  0.74561005  0.44557621    -0.09500
C1091       C  0.66629446  0.76519020  0.44419607     0.05900
C1092       C  0.68300562  0.76652531  0.42138625    -0.13800
Br1093     Br  0.66796058  0.79142182  0.35319846    -0.05900
Br1094     Br  0.76136424  0.69536946  0.35621180    -0.00300
Br1095     Br  0.61119937  0.70327991  0.42296633     0.00200
Br1096     Br  0.71330541  0.79090792  0.42079585    -0.04200
Br1097     Br  0.71521093  0.79026215  0.30585899     0.00300
Br1098     Br  0.72037118  0.70361595  0.40870086    -0.03500
Br1099     Br  0.64808542  0.71059791  0.36767292    -0.04400
Br1100     Br  0.67140507  0.79079457  0.47316893    -0.00400
C1101       C  0.83184623  0.92152786  0.44951786     0.01000
C1102       C  0.85316140  0.90336998  0.44479710     0.03800
C1103       C  0.85342640  0.88755390  0.42125656    -0.12200
C1104       C  0.83284114  0.89045181  0.40187531     0.23100
C1105       C  0.81251313  0.90992076  0.40571510    -0.12800
C1106       C  0.81155660  0.92489638  0.42985418     0.04500
C1107       C  0.83130678  0.87134556  0.37883058     0.27000
C1108       C  0.84895935  0.87382613  0.35672516    -0.13500
C1109       C  0.84904358  0.85409841  0.33625356     0.05100
C1110       C  0.83060263  0.83236209  0.33725804    -0.09500
C1111       C  0.81204292  0.83073441  0.35879521     0.05900
C1112       C  0.81286551  0.84976819  0.37979801    -0.13800
Br1113     Br  0.78588556  0.91572441  0.37792749    -0.05900
Br1114     Br  0.88237203  0.90045123  0.47038281    -0.00300
Br1115     Br  0.87560516  0.85628912  0.30786099     0.00200
Br1116     Br  0.78910890  0.84583112  0.41040915    -0.04200
Br1117     Br  0.78126629  0.94824078  0.43684017     0.00300
Br1118     Br  0.88168046  0.86136433  0.41592086    -0.03500
Br1119     Br  0.87322735  0.90417238  0.35478474    -0.04400
Br1120     Br  0.78440558  0.80328861  0.35915499    -0.00400
C1121       C  0.62391077  0.74280589  0.07092034     0.01000
C1122       C  0.64680701  0.72738678  0.06378574     0.03800
C1123       C  0.66953725  0.72744778  0.08062032    -0.12200
C1124       C  0.66957332  0.74298639  0.10434913     0.23100
C1125       C  0.64711007  0.75878815  0.11125838    -0.12800
C1126       C  0.62449066  0.75915709  0.09431557     0.04500
C1127       C  0.69287992  0.74195851  0.12268519     0.27000
C1128       C  0.69199841  0.72499574  0.14533326    -0.13500
C1129       C  0.71367017  0.72454322  0.16342577     0.05100
C1130       C  0.73602018  0.74176778  0.15938285    -0.09500
C1131       C  0.73702674  0.75841760  0.13622688     0.05900
C1132       C  0.71557399  0.75817299  0.11773300    -0.13800
Br1133     Br  0.64698709  0.77894066  0.14467668    -0.05900
Br1134     Br  0.64707249  0.70477444  0.03197681    -0.00300
Br1135     Br  0.71282456  0.69908928  0.19280436     0.00200
Br1136     Br  0.71691471  0.78028266  0.08570080    -0.04200
Br1137     Br  0.59502163  0.78317459  0.10280838     0.00300
Br1138     Br  0.70019727  0.70502691  0.07216419    -0.03500
Br1139     Br  0.66082329  0.70247183  0.15153846    -0.04400
Br1140     Br  0.76670902  0.78291794  0.13030096    -0.00400
C1141       C  0.73501674  0.65394121  0.24903802     0.01000
C1142       C  0.70820106  0.66176415  0.25581673     0.03800
C1143       C  0.68685597  0.64318847  0.25376424    -0.12200
C1144       C  0.69190982  0.61618572  0.24701102     0.23100
C1145       C  0.71831310  0.60767805  0.24167603    -0.12800
C1146       C  0.73983517  0.62625592  0.24245464     0.04500
C1147       C  0.66962767  0.59624650  0.24798029     0.27000
C1148       C  0.66222365  0.58485629  0.27294944    -0.13500
C1149       C  0.64025340  0.56708052  0.27442909     0.05100
C1150       C  0.62566453  0.56057407  0.25095712    -0.09500
C1151       C  0.63345946  0.57130760  0.22584717     0.05900
C1152       C  0.65539010  0.58925198  0.22435310    -0.13800
Br1153     Br  0.72468682  0.57001854  0.23371522    -0.05900
Br1154     Br  0.69976464  0.69689613  0.27073719    -0.00300
Br1155     Br  0.62936843  0.55245668  0.30881103     0.00200
Br1156     Br  0.66550245  0.60491681  0.19022948    -0.04200
Br1157     Br  0.77541186  0.61212123  0.23492298     0.00300
Br1158     Br  0.65022730  0.65444479  0.26071344    -0.03500
Br1159     Br  0.68177235  0.59433741  0.30526775    -0.04400
Br1160     Br  0.61401703  0.56131139  0.19364767    -0.00400
C1161       C  0.91284775  0.64767811  0.24419657     0.01000
C1162       C  0.93779977  0.64987714  0.25800928     0.03800
C1163       C  0.95554965  0.62776266  0.25899621    -0.12200
C1164       C  0.94877348  0.60330048  0.24633994     0.23100
C1165       C  0.92443511  0.60105278  0.23201469    -0.12800
C1166       C  0.90640204  0.62297021  0.23101812     0.04500
C1167       C  0.96692498  0.57964053  0.24917176     0.27000
C1168       C  0.98803098  0.57554301  0.23068672    -0.13500
C1169       C  0.00650822  0.55434878  0.23462171     0.05100
C1170       C  0.00294206  0.53602546  0.25621927    -0.09500
C1171       C  0.98148828  0.54006774  0.27453785     0.05900
C1172       C  0.96389830  0.56209771  0.27128656    -0.13800
Br1173     Br  0.91595755  0.56765684  0.21377692    -0.05900
Br1174     Br  0.94756497  0.68221441  0.27753413    -0.00300
Br1175     Br  0.03631954  0.55053565  0.20991948     0.00200
Br1176     Br  0.93582356  0.56876913  0.29741260    -0.04200
Br1177     Br  0.87319371  0.61837291  0.21104756     0.00300
Br1178     Br  0.98917818  0.63050095  0.27841150    -0.03500
Br1179     Br  0.99118721  0.59887016  0.19970137    -0.04400
Br1180     Br  0.97680671  0.51640032  0.30504888    -0.00400
C1181       C  0.01288920  0.43770709  0.26009277     0.01000
C1182       C  0.01350106  0.42196035  0.23644613     0.03800
C1183       C  0.99902290  0.39760809  0.23528566    -0.12200
C1184       C  0.98174111  0.39038069  0.25670730     0.23100
C1185       C  0.98176549  0.40588517  0.28065198    -0.12800
C1186       C  0.99866183  0.42852746  0.28281029     0.04500
C1187       C  0.96256080  0.36757351  0.25336771     0.27000
C1188       C  0.94105005  0.36981207  0.23484985    -0.13500
C1189       C  0.92310824  0.34820712  0.23124243     0.05100
C1190       C  0.92463939  0.32546436  0.24825082    -0.09500
C1191       C  0.94583325  0.32341407  0.26716485     0.05900
C1192       C  0.96546743  0.34381504  0.26873252    -0.13800
Br1193     Br  0.95740820  0.39751795  0.30981521    -0.05900
Br1194     Br  0.03284824  0.43451560  0.20514264    -0.00300
Br1195     Br  0.89732880  0.34933740  0.20202510     0.00200
Br1196     Br  0.99634614  0.33914327  0.29194794    -0.04200
Br1197     Br  0.00354510  0.44620509  0.31712693     0.00300
Br1198     Br  0.00243183  0.37438782  0.20418483    -0.03500
Br1199     Br  0.93522867  0.40296236  0.21523467    -0.04400
Br1200     Br  0.94698225  0.29394324  0.29259925    -0.00400
C1201       C  0.83415467  0.54241310  0.42827670     0.01000
C1202       C  0.85925367  0.55437625  0.42288148     0.03800
C1203       C  0.86067883  0.57709597  0.40599057    -0.12200
C1204       C  0.83693148  0.58774725  0.39458567     0.23100
C1205       C  0.81173694  0.57641219  0.40101298    -0.12800
C1206       C  0.81035741  0.55390920  0.41809022     0.04500
C1207       C  0.83834438  0.61029590  0.37511688     0.27000
C1208       C  0.83298814  0.63673304  0.38364344    -0.13500
C1209       C  0.83291305  0.65805366  0.36489820     0.05100
C1210       C  0.83694863  0.65268322  0.33684828    -0.09500
C1211       C  0.84498599  0.62618800  0.32913091     0.05900
C1212       C  0.84480469  0.60509702  0.34804999    -0.13800
Br1213     Br  0.77924640  0.59107541  0.38548435    -0.05900
Br1214     Br  0.89152774  0.53930984  0.43838912    -0.00300
Br1215     Br  0.82895367  0.69411570  0.37940697     0.00200
Br1216     Br  0.85266372  0.56856394  0.33682790    -0.04200
Br1217     Br  0.77591525  0.53853191  0.42738538     0.00300
Br1218     Br  0.89509504  0.59309724  0.39766732    -0.03500
Br1219     Br  0.82498169  0.64333446  0.42127886    -0.04400
Br1220     Br  0.85936414  0.61820383  0.29371831    -0.00400
C1221       C  0.82960534  0.44394699  0.42390671     0.01000
C1222       C  0.81404241  0.44208655  0.40000269     0.03800
C1223       C  0.81415049  0.41815612  0.38476840    -0.12200
C1224       C  0.83037296  0.39633397  0.39274856     0.23100
C1225       C  0.84568446  0.39793222  0.41656405    -0.12800
C1226       C  0.84525368  0.42158137  0.43223404     0.04500
C1227       C  0.83269779  0.37241067  0.37504562     0.27000
C1228       C  0.81381172  0.35133814  0.37684460    -0.13500
C1229       C  0.81507057  0.32958239  0.35868063     0.05100
C1230       C  0.83553655  0.32868967  0.33892152    -0.09500
C1231       C  0.85511555  0.34931062  0.33794135     0.05900
C1232       C  0.85355124  0.37121452  0.35585498    -0.13800
Br1233     Br  0.86777162  0.36771975  0.42718741    -0.05900
Br1234     Br  0.79204727  0.47185004  0.38786826    -0.00300
Br1235     Br  0.78752406  0.30216670  0.35983895     0.00200
Br1236     Br  0.87973074  0.39994503  0.35394184    -0.04200
Br1237     Br  0.86779970  0.42351752  0.46398577     0.00300
Br1238     Br  0.79210575  0.41507471  0.35277221    -0.03500
Br1239     Br  0.78591772  0.35270498  0.40389071    -0.04400
Br1240     Br  0.88454782  0.34738305  0.31254472    -0.00400
C1241       C  0.52817941  0.56255834  0.75238001     0.01000
C1242       C  0.52456172  0.58322366  0.73316765     0.03800
C1243       C  0.50311902  0.60131037  0.73565694    -0.12200
C1244       C  0.48301282  0.59666698  0.75499344     0.23100
C1245       C  0.48490779  0.57451687  0.77258616    -0.12800
C1246       C  0.50798661  0.55803649  0.77206984     0.04500
C1247       C  0.45982770  0.61515968  0.75629123     0.27000
C1248       C  0.45989360  0.63652440  0.77497305    -0.13500
C1249       C  0.43947257  0.65604709  0.77408361     0.05100
C1250       C  0.41908279  0.65430436  0.75428333    -0.09500
C1251       C  0.41890452  0.63262761  0.73578519     0.05900
C1252       C  0.43901124  0.61281363  0.73715974    -0.13800
Br1253     Br  0.45590513  0.56722409  0.79744579    -0.05900
Br1254     Br  0.54676586  0.58518914  0.70145713    -0.00300
Br1255     Br  0.43929851  0.68468625  0.80050496     0.00200
Br1256     Br  0.43837110  0.58246766  0.71271955    -0.04200
Br1257     Br  0.51194003  0.53040493  0.79919992     0.00300
Br1258     Br  0.50174614  0.63304423  0.71308276    -0.03500
Br1259     Br  0.48821536  0.63906980  0.80156624    -0.04400
Br1260     Br  0.39244943  0.63096320  0.70720965    -0.00400
C1261       C  0.41721447  0.74619232  0.83965921     0.01000
C1262       C  0.44069100  0.76192034  0.83595424     0.03800
C1263       C  0.46186333  0.76010265  0.85455240    -0.12200
C1264       C  0.45912904  0.74365210  0.87745059     0.23100
C1265       C  0.43537078  0.72904106  0.88201042    -0.12800
C1266       C  0.41457495  0.72983114  0.86291604     0.04500
C1267       C  0.48191488  0.74063887  0.89603249     0.27000
C1268       C  0.49892142  0.71814068  0.89349329    -0.13500
C1269       C  0.52145560  0.71582127  0.91026672     0.05100
C1270       C  0.52771632  0.73665909  0.92853372    -0.09500
C1271       C  0.51013222  0.75874945  0.93169928     0.05900
C1272       C  0.48694424  0.76048960  0.91566822    -0.13800
Br1273     Br  0.43193779  0.70721783  0.91412338    -0.05900
Br1274     Br  0.44394967  0.78676267  0.80609925    -0.00300
Br1275     Br  0.54257409  0.68336406  0.90919695     0.00200
Br1276     Br  0.46228207  0.79023136  0.92002835    -0.04200
Br1277     Br  0.38376446  0.70663276  0.86814934     0.00300
Br1278     Br  0.49509521  0.77942335  0.84835252    -0.03500
Br1279     Br  0.49160889  0.69085872  0.86658160    -0.04400
Br1280     Br  0.51834094  0.78734900  0.95688067    -0.00400
C1281       C  0.24059094  0.64994108  0.74786420     0.01000
C1282       C  0.21782558  0.65318553  0.73082344     0.03800
C1283       C  0.19899316  0.63221611  0.72805175    -0.12200
C1284       C  0.20301257  0.60766309  0.74150473     0.23100
C1285       C  0.22532372  0.60427405  0.75867542    -0.12800
C1286       C  0.24394558  0.62539168  0.76214422     0.04500
C1287       C  0.18394599  0.58515547  0.73718397     0.27000
C1288       C  0.16220863  0.58141223  0.75499499    -0.13500
C1289       C  0.14506964  0.55906872  0.75183706     0.05100
C1290       C  0.14972632  0.54047577  0.73075681    -0.09500
C1291       C  0.17068724  0.54505507  0.71213329     0.05900
C1292       C  0.18770314  0.56743944  0.71529415    -0.13800
Br1293     Br  0.23021007  0.57047015  0.77739233    -0.05900
Br1294     Br  0.21265111  0.68533415  0.70946613    -0.00300
Br1295     Br  0.11651156  0.55317775  0.77758304     0.00200
Br1296     Br  0.21630555  0.57384849  0.68976381    -0.04200
Br1297     Br  0.27327175  0.62051310  0.78739034     0.00300
Br1298     Br  0.16754120  0.63676747  0.70552904    -0.03500
Br1299     Br  0.15637113  0.60678187  0.78395409    -0.04400
Br1300     Br  0.17594802  0.52080075  0.68205270    -0.00400
C1301       C  0.32739734  0.65009814  0.66291126     0.01000
C1302       C  0.34507249  0.65166609  0.64057936     0.03800
C1303       C  0.34556806  0.63082957  0.62137379    -0.12200
C1304       C  0.32925191  0.60794063  0.62483966     0.23100
C1305       C  0.31058280  0.60692213  0.64615292    -0.12800
C1306       C  0.30952803  0.62800501  0.66512231     0.04500
C1307       C  0.33349371  0.58402271  0.60747380     0.27000
C1308       C  0.31747811  0.57984579  0.58443635    -0.13500
C1309       C  0.32124297  0.55663821  0.56852150     0.05100
C1310       C  0.34198486  0.53815660  0.57493036    -0.09500
C1311       C  0.35860858  0.54297972  0.59757089     0.05900
C1312       C  0.35393823  0.56551900  0.61412706    -0.13800
Br1313     Br  0.28654611  0.57649896  0.64921652    -0.05900
Br1314     Br  0.37029973  0.68112003  0.63697417    -0.00300
Br1315     Br  0.29652514  0.54949335  0.53927043     0.00200
Br1316     Br  0.37530122  0.57101654  0.64628060    -0.04200
Br1317     Br  0.28293815  0.62670305  0.69345487     0.00300
Br1318     Br  0.36875713  0.63333552  0.59023885    -0.03500
Br1319     Br  0.29029275  0.60597228  0.57497173    -0.04400
Br1320     Br  0.38860317  0.51949001  0.60543645    -0.00400
C1321       C  0.35701821  0.91964124  0.54876886     0.01000
C1322       C  0.37807373  0.90283470  0.55767375     0.03800
C1323       C  0.37427326  0.88604581  0.58020872    -0.12200
C1324       C  0.34949174  0.88633285  0.59405371     0.23100
C1325       C  0.32886462  0.90401931  0.58585920    -0.12800
C1326       C  0.33249201  0.92040653  0.56302246     0.04500
C1327       C  0.34448994  0.86690651  0.61618091     0.27000
C1328       C  0.32961376  0.84331229  0.61099628    -0.13500
C1329       C  0.32475940  0.82465941  0.63179492     0.05100
C1330       C  0.33520790  0.82933739  0.65804080    -0.09500
C1331       C  0.35027621  0.85319620  0.66301239     0.05900
C1332       C  0.35456211  0.87196435  0.64219533    -0.13800
Br1333     Br  0.29535374  0.90505908  0.60554149    -0.05900
Br1334     Br  0.41207781  0.90284680  0.53891881    -0.00300
Br1335     Br  0.30289141  0.79334749  0.62384079     0.00200
Br1336     Br  0.37444463  0.90476720  0.64911845    -0.04200
Br1337     Br  0.30319482  0.94248787  0.55017788     0.00300
Br1338     Br  0.40262631  0.86199349  0.59163671    -0.03500
Br1339     Br  0.31587990  0.83666661  0.57508499    -0.04400
Br1340     Br  0.36687836  0.86019432  0.69758372    -0.00400
C1341       C  0.41994715  0.73972030  0.66155434     0.01000
C1342       C  0.44506560  0.72714121  0.66725514     0.03800
C1343       C  0.46542774  0.72638599  0.64750159    -0.12200
C1344       C  0.46040700  0.73643602  0.62147790     0.23100
C1345       C  0.43564175  0.74890087  0.61563950    -0.12800
C1346       C  0.41589192  0.75147667  0.63579454     0.04500
C1347       C  0.48060421  0.73302335  0.59971442     0.27000
C1348       C  0.49622601  0.75515358  0.59116224    -0.13500
C1349       C  0.51201224  0.75303390  0.56769068     0.05100
C1350       C  0.51256926  0.72862048  0.55313064    -0.09500
C1351       C  0.49929110  0.70575057  0.56334640     0.05900
C1352       C  0.48278348  0.70806553  0.58624818    -0.13800
Br1353     Br  0.42861645  0.76198695  0.57957680    -0.05900
Br1354     Br  0.45183738  0.70911707  0.70120014    -0.00300
Br1355     Br  0.53197714  0.78382727  0.55488047     0.00200
Br1356     Br  0.46209065  0.67743288  0.59835142    -0.04200
Br1357     Br  0.38427525  0.77279287  0.62795645     0.00300
Br1358     Br  0.50035435  0.71133236  0.65577846    -0.03500
Br1359     Br  0.49507083  0.78856897  0.61109986    -0.04400
Br1360     Br  0.50454020  0.67112967  0.54646747    -0.00400
C1361       C  0.41803622  0.32866468  0.75125730     0.01000
C1362       C  0.41383912  0.35304093  0.76553836     0.03800
C1363       C  0.43299392  0.37378375  0.76407459    -0.12200
C1364       C  0.45780014  0.36913619  0.75130492     0.23100
C1365       C  0.46247597  0.34471197  0.73763051    -0.12800
C1366       C  0.44229431  0.32489499  0.73670448     0.04500
C1367       C  0.47995471  0.38873796  0.75454644     0.27000
C1368       C  0.48694291  0.40618926  0.73328258    -0.13500
C1369       C  0.50957417  0.42302472  0.73582008     0.05100
C1370       C  0.52565213  0.42168211  0.75927602    -0.09500
C1371       C  0.51745175  0.40572432  0.78123847     0.05900
C1372       C  0.49465699  0.38918978  0.77887699    -0.13800
Br1373     Br  0.49683137  0.33829971  0.72052448    -0.05900
Br1374     Br  0.38363093  0.35735887  0.78972353    -0.00300
Br1375     Br  0.51865131  0.44754776  0.70700059     0.00200
Br1376     Br  0.48393452  0.36660037  0.80875030    -0.04200
Br1377     Br  0.44807941  0.29329597  0.71455123     0.00300
Br1378     Br  0.42550428  0.40867241  0.77964358    -0.03500
Br1379     Br  0.46595024  0.40630278  0.70048592    -0.04400
Br1380     Br  0.53655472  0.40762222  0.81503314    -0.00400
C1381       C  0.52453313  0.22996741  0.93358255     0.01000
C1382       C  0.50785363  0.25294919  0.93508050     0.03800
C1383       C  0.48442334  0.25451804  0.91917668    -0.12200
C1384       C  0.47806639  0.23353780  0.90109152     0.23100
C1385       C  0.49418587  0.21021993  0.90018942    -0.12800
C1386       C  0.51691192  0.20812093  0.91700136     0.04500
C1387       C  0.45540843  0.23667286  0.88188185     0.27000
C1388       C  0.43052686  0.22402647  0.88681920    -0.13500
C1389       C  0.40984389  0.22540507  0.86741647     0.05100
C1390       C  0.41351228  0.24096858  0.84369913    -0.09500
C1391       C  0.43759959  0.25568802  0.84026937     0.05900
C1392       C  0.45898151  0.25225329  0.85844291    -0.13800
Br1393     Br  0.48577502  0.18176449  0.87492027    -0.05900
Br1394     Br  0.51787077  0.28309121  0.95754099    -0.00300
Br1395     Br  0.37738881  0.20473232  0.87328986     0.00200
Br1396     Br  0.49365535  0.26792637  0.85057387    -0.04200
Br1397     Br  0.53663555  0.17476689  0.91828559     0.00300
Br1398     Br  0.46146348  0.28583966  0.92123866    -0.03500
Br1399     Br  0.42515883  0.20441505  0.92002799    -0.04400
Br1400     Br  0.44076536  0.28239291  0.81206935    -0.00400
C1401       C  0.33883199  0.32561749  0.65774583     0.01000
C1402       C  0.32223995  0.32507394  0.63454410     0.03800
C1403       C  0.32513829  0.34497889  0.61450472    -0.12200
C1404       C  0.34394646  0.36595945  0.61793539     0.23100
C1405       C  0.36144396  0.36576445  0.64028187    -0.12800
C1406       C  0.35921601  0.34543548  0.65989815     0.04500
C1407       C  0.34308898  0.39007626  0.60026909     0.27000
C1408       C  0.36254842  0.39401432  0.57998699    -0.13500
C1409       C  0.36374394  0.41875884  0.56607855     0.05100
C1410       C  0.34471686  0.43923004  0.57168219    -0.09500
C1411       C  0.32434883  0.43454813  0.59099657     0.05900
C1412       C  0.32391565  0.41029694  0.60559858    -0.13800
Br1413     Br  0.38780605  0.39414096  0.64450046    -0.05900
Br1414     Br  0.29412779  0.29838210  0.63088957    -0.00300
Br1415     Br  0.39281024  0.42515737  0.54103686     0.00200
Br1416     Br  0.29758697  0.40509920  0.63381868    -0.04200
Br1417     Br  0.38504923  0.34438476  0.68893063     0.00300
Br1418     Br  0.30275055  0.34422811  0.58269583    -0.03500
Br1419     Br  0.38794293  0.36569025  0.57194521    -0.04400
Br1420     Br  0.29627985  0.46082222  0.59707812    -0.00400
C1421       C  0.23944652  0.32922946  0.73968571     0.01000
C1422       C  0.24318064  0.34950332  0.71998599     0.03800
C1423       C  0.22537789  0.37144932  0.71868649    -0.12200
C1424       C  0.20291964  0.37242733  0.73592560     0.23100
C1425       C  0.19820828  0.35150332  0.75447042    -0.12800
C1426       C  0.21665249  0.33013284  0.75672569     0.04500
C1427       C  0.18502213  0.39621479  0.73557987     0.27000
C1428       C  0.19030433  0.41787378  0.75311117    -0.13500
C1429       C  0.17370520  0.44077864  0.75272026     0.05100
C1430       C  0.15186245  0.44227276  0.73437841    -0.09500
C1431       C  0.14641000  0.42020949  0.71708240     0.05900
C1432       C  0.16292416  0.39718360  0.71785014    -0.13800
Br1433     Br  0.16685541  0.35286959  0.77741839    -0.05900
Br1434     Br  0.27185589  0.34682271  0.69379669    -0.00300
Br1435     Br  0.18069674  0.46943767  0.77828158     0.00200
Br1436     Br  0.15568872  0.36692541  0.69440341    -0.04200
Br1437     Br  0.21137144  0.30335166  0.78449563     0.00300
Br1438     Br  0.23222915  0.40079521  0.69403742    -0.03500
Br1439     Br  0.22055229  0.41598895  0.77761046    -0.04400
Br1440     Br  0.11756502  0.42177065  0.69098490    -0.00400
C1441       C  0.33522939  0.14636541  0.66342895     0.01000
C1442       C  0.35138113  0.15177813  0.64049490     0.03800
C1443       C  0.35353884  0.13275523  0.61971407    -0.12200
C1444       C  0.34265883  0.10681780  0.62299760     0.23100
C1445       C  0.32822200  0.10040465  0.64657972    -0.12800
C1446       C  0.32336895  0.12046442  0.66619465     0.04500
C1447       C  0.34644865  0.08680937  0.60113120     0.27000
C1448       C  0.32514839  0.08123742  0.58318203    -0.13500
C1449       C  0.32994374  0.06575635  0.55999156     0.05100
C1450       C  0.35641387  0.05830441  0.55321594    -0.09500
C1451       C  0.37759877  0.06300962  0.57148453     0.05900
C1452       C  0.37234912  0.07626520  0.59603332    -0.13800
Br1453     Br  0.31548168  0.06402039  0.65194717    -0.05900
Br1454     Br  0.37320016  0.18389543  0.63795448    -0.00300
Br1455     Br  0.30016963  0.05402080  0.53788266     0.00200
Br1456     Br  0.40071104  0.08115985  0.62224211    -0.04200
Br1457     Br  0.29935498  0.11233032  0.69574713     0.00300
Br1458     Br  0.37118299  0.14248375  0.58628473    -0.03500
Br1459     Br  0.28989350  0.09643408  0.58911992    -0.04400
Br1460     Br  0.41382722  0.05261093  0.56226038    -0.00400
C1461       C  0.35871357  0.06469695  0.45432198     0.01000
C1462       C  0.33834457  0.08452463  0.45160324     0.03800
C1463       C  0.33476914  0.09812521  0.42694966    -0.12200
C1464       C  0.35288694  0.09406047  0.40552275     0.23100
C1465       C  0.37414630  0.07545570  0.40854936    -0.12800
C1466       C  0.37673002  0.06040639  0.43262143     0.04500
C1467       C  0.35096873  0.11192591  0.38138145     0.27000
C1468       C  0.33225800  0.10657776  0.36069904    -0.13500
C1469       C  0.32624007  0.12653418  0.34120416     0.05100
C1470       C  0.34053074  0.15132691  0.34102697    -0.09500
C1471       C  0.36104097  0.15530299  0.36051399     0.05900
C1472       C  0.36547247  0.13621535  0.38104189    -0.13800
Br1473     Br  0.40010830  0.07125986  0.37994579    -0.05900
Br1474     Br  0.31540697  0.09431668  0.48139417    -0.00300
Br1475     Br  0.29691341  0.12036938  0.31640893     0.00200
Br1476     Br  0.39095673  0.14348823  0.40951380    -0.04200
Br1477     Br  0.40644825  0.03562245  0.43659106     0.00300
Br1478     Br  0.30491199  0.12273355  0.42238431    -0.03500
Br1479     Br  0.31484862  0.07184537  0.35959104    -0.04400
Br1480     Br  0.38458180  0.18593645  0.35864727    -0.00400
C1481       C  0.50938912  0.23273801  0.54880606     0.01000
C1482       C  0.50888965  0.25604878  0.56513934     0.03800
C1483       C  0.49334626  0.25646768  0.58895742    -0.12200
C1484       C  0.47629256  0.23454710  0.59525154     0.23100
C1485       C  0.47660600  0.21141977  0.57865405    -0.12800
C1486       C  0.49449085  0.20989445  0.55670500     0.04500
C1487       C  0.45735665  0.23616029  0.61859240     0.27000
C1488       C  0.46137673  0.22020599  0.64185318    -0.13500
C1489       C  0.44229664  0.22045895  0.66299733     0.05100
C1490       C  0.41981693  0.23792859  0.66176292    -0.09500
C1491       C  0.41664891  0.25475117  0.63890159     0.05900
C1492       C  0.43476701  0.25324023  0.61716001    -0.13800
Br1493     Br  0.45151057  0.18236298  0.58493834    -0.05900
Br1494     Br  0.52849243  0.28783713  0.55433871    -0.00300
Br1495     Br  0.44610939  0.19527518  0.69245133     0.00200
Br1496     Br  0.42807171  0.27412395  0.58488783    -0.04200
Br1497     Br  0.50068119  0.17568936  0.53938736     0.00300
Br1498     Br  0.49517299  0.28717994  0.61284195    -0.03500
Br1499     Br  0.49310123  0.19791626  0.64464477    -0.04400
Br1500     Br  0.38815262  0.28098646  0.63728073    -0.00400
C1501       C  0.51010927  0.22727107  0.44903200     0.01000
C1502       C  0.51916245  0.24164726  0.42582080     0.03800
C1503       C  0.50330447  0.24215593  0.40222963    -0.12200
C1504       C  0.47825072  0.22909339  0.40169810     0.23100
C1505       C  0.46969635  0.21404179  0.42406872    -0.12800
C1506       C  0.48596275  0.21216069  0.44715937     0.04500
C1507       C  0.45958495  0.23345261  0.37879277     0.27000
C1508       C  0.44055393  0.25438354  0.38039440    -0.13500
C1509       C  0.42133752  0.25769363  0.35984005     0.05100
C1510       C  0.42141183  0.24031730  0.33719934    -0.09500
C1511       C  0.44141834  0.22006589  0.33508627     0.05900
C1512       C  0.46021129  0.21645416  0.35605603    -0.13800
Br1513     Br  0.43448973  0.19776947  0.42379950    -0.05900
Br1514     Br  0.55211348  0.26247730  0.42564477    -0.00300
Br1515     Br  0.39535103  0.28650154  0.36277260     0.00200
Br1516     Br  0.48623503  0.18761330  0.35425343    -0.04200
Br1517     Br  0.47512787  0.18745672  0.47511595     0.00300
Br1518     Br  0.51466260  0.26250015  0.37099268    -0.03500
Br1519     Br  0.44075156  0.27823875  0.41125262    -0.04400
Br1520     Br  0.44202996  0.19560247  0.30472352    -0.00400
C1521       C  0.41450916  0.64585254  0.25047314     0.01000
C1522       C  0.41579524  0.62751018  0.27223552     0.03800
C1523       C  0.43675724  0.60851157  0.27385342    -0.12200
C1524       C  0.45723228  0.60837639  0.25430064     0.23100
C1525       C  0.45576906  0.62615771  0.23217590    -0.12800
C1526       C  0.43416672  0.64443911  0.22995176     0.04500
C1527       C  0.48089956  0.59034962  0.25756219     0.27000
C1528       C  0.50344585  0.59928751  0.27225647    -0.13500
C1529       C  0.52657744  0.58302122  0.27406111     0.05100
C1530       C  0.52772943  0.55799165  0.26024237    -0.09500
C1531       C  0.50441933  0.54847222  0.24672523     0.05900
C1532       C  0.48102054  0.56454837  0.24574096    -0.13800
Br1533     Br  0.48387298  0.62587457  0.20534584    -0.05900
Br1534     Br  0.39063131  0.62977827  0.30137777    -0.00300
Br1535     Br  0.55604453  0.59490153  0.29670269     0.00200
Br1536     Br  0.44899511  0.55161808  0.22784443    -0.04200
Br1537     Br  0.43111107  0.66699559  0.19836541     0.00300
Br1538     Br  0.43801927  0.58303974  0.30328480    -0.03500
Br1539     Br  0.50262369  0.63416678  0.28963078    -0.04400
Br1540     Br  0.50442557  0.51431925  0.22799095    -0.00400
C1541       C  0.52617146  0.73255892  0.06794966     0.01000
C1542       C  0.51969115  0.70951408  0.08316759     0.03800
C1543       C  0.49657351  0.70950838  0.09944711    -0.12200
C1544       C  0.48039920  0.73276525  0.10083552     0.23100
C1545       C  0.48596236  0.75515582  0.08429695    -0.12800
C1546       C  0.50879120  0.75497421  0.06768485     0.04500
C1547       C  0.45886057  0.73467878  0.12118986     0.27000
C1548       C  0.43189139  0.73129887  0.11355260    -0.13500
C1549       C  0.41121870  0.73537764  0.13246915     0.05100
C1550       C  0.41773002  0.74092094  0.15996634    -0.09500
C1551       C  0.44511781  0.74556584  0.16702620     0.05900
C1552       C  0.46547711  0.74209803  0.14772925    -0.13800
Br1553     Br  0.46283785  0.78644462  0.08523136    -0.05900
Br1554     Br  0.54246335  0.67807273  0.08155986    -0.00300
Br1555     Br  0.37462757  0.73476904  0.11895379     0.00200
Br1556     Br  0.50278728  0.74774667  0.15748856    -0.04200
Br1557     Br  0.51703987  0.78605585  0.04576365     0.00300
Br1558     Br  0.48715672  0.67802664  0.12024454    -0.03500
Br1559     Br  0.42359672  0.72076408  0.07688567    -0.04400
Br1560     Br  0.45556542  0.75943990  0.20211227    -0.00400
C1561       C  0.41991960  0.73357365  0.33915729     0.01000
C1562       C  0.43930748  0.71266760  0.33897652     0.03800
C1563       C  0.45777174  0.71014729  0.36048309    -0.12200
C1564       C  0.45679853  0.72833420  0.38232073     0.23100
C1565       C  0.43794517  0.74951177  0.38221382    -0.12800
C1566       C  0.42004663  0.75249435  0.36045874     0.04500
C1567       C  0.47530522  0.72553642  0.40570482     0.27000
C1568       C  0.46875344  0.70790685  0.42695888    -0.13500
C1569       C  0.48421687  0.70784722  0.45078251     0.05100
C1570       C  0.50583467  0.72616514  0.45386683    -0.09500
C1571       C  0.51230796  0.74386769  0.43240588     0.05900
C1572       C  0.49762327  0.74285967  0.40813716    -0.13800
Br1573     Br  0.43625703  0.77415157  0.41241107    -0.05900
Br1574     Br  0.44027072  0.68686282  0.30989111    -0.00300
Br1575     Br  0.47588350  0.68197363  0.47859187     0.00200
Br1576     Br  0.50755987  0.76569190  0.37821193    -0.04200
Br1577     Br  0.39704785  0.78372268  0.35915316     0.00300
Br1578     Br  0.48411498  0.68155162  0.36042940    -0.03500
Br1579     Br  0.43804108  0.68428850  0.42356102    -0.04400
Br1580     Br  0.53951560  0.77145063  0.43670652    -0.00400
C1581       C  0.34042059  0.82669589  0.34356229     0.01000
C1582       C  0.33406694  0.82008327  0.37090611     0.03800
C1583       C  0.33813093  0.83913715  0.39152748    -0.12200
C1584       C  0.34825749  0.86481026  0.38539313     0.23100
C1585       C  0.35466709  0.87163287  0.35870622    -0.12800
C1586       C  0.35143192  0.85261814  0.33788651     0.04500
C1587       C  0.35202785  0.88478595  0.40720140     0.27000
C1588       C  0.32991540  0.90008568  0.41621700    -0.13500
C1589       C  0.33315076  0.91825706  0.43771703     0.05100
C1590       C  0.35830788  0.92057938  0.45060693    -0.09500
C1591       C  0.38060023  0.90588919  0.44110376     0.05900
C1592       C  0.37751412  0.88804993  0.41928537    -0.13800
Br1593     Br  0.36777352  0.90750316  0.35092075    -0.05900
Br1594     Br  0.31974920  0.78530647  0.38170658    -0.00300
Br1595     Br  0.30294430  0.93928472  0.45015557     0.00200
Br1596     Br  0.40787141  0.86742448  0.40646235    -0.04200
Br1597     Br  0.36442658  0.86255172  0.30241510     0.00300
Br1598     Br  0.32951013  0.83039806  0.42860616    -0.03500
Br1599     Br  0.29500391  0.89516320  0.39978398    -0.04400
Br1600     Br  0.41524528  0.91023184  0.45816720    -0.00400
C1601       C  0.23388012  0.65932807  0.25297203     0.01000
C1602       C  0.23465008  0.63996463  0.27380155     0.03800
C1603       C  0.21462119  0.62012764  0.27557169    -0.12200
C1604       C  0.19265357  0.62060585  0.25762274     0.23100
C1605       C  0.18997960  0.64198140  0.23910783    -0.12800
C1606       C  0.21090653  0.66089275  0.23617569     0.04500
C1607       C  0.17428605  0.59709725  0.25623249     0.27000
C1608       C  0.17676848  0.57880917  0.23460340    -0.13500
C1609       C  0.16080168  0.55552071  0.23392954     0.05100
C1610       C  0.14506634  0.54843958  0.25644274    -0.09500
C1611       C  0.14176462  0.56716255  0.27768761     0.05900
C1612       C  0.15549585  0.59203039  0.27692475    -0.13800
Br1613     Br  0.15767294  0.64494330  0.21765466    -0.05900
Br1614     Br  0.26179663  0.64176770  0.30148019    -0.00300
Br1615     Br  0.15795523  0.53532181  0.20086373     0.00200
Br1616     Br  0.14885392  0.61914722  0.30407613    -0.04200
Br1617     Br  0.20838947  0.68772249  0.20814434     0.00300
Br1618     Br  0.21779252  0.59190876  0.30224985    -0.03500
Br1619     Br  0.20285505  0.58489804  0.20633996    -0.04400
Br1620     Br  0.11930870  0.55856506  0.30820291    -0.00400
C1621       C  0.15278109  0.44865666  0.25562089     0.01000
C1622       C  0.17715601  0.44729960  0.24063235     0.03800
C1623       C  0.19298335  0.42372749  0.24085913    -0.12200
C1624       C  0.18514052  0.40138308  0.25633973     0.23100
C1625       C  0.16102145  0.40223450  0.27107846    -0.12800
C1626       C  0.14458108  0.42541924  0.27040118     0.04500
C1627       C  0.20260242  0.37706858  0.25731738     0.27000
C1628       C  0.19960920  0.35646655  0.23794115    -0.13500
C1629       C  0.21739253  0.33431545  0.23780112     0.05100
C1630       C  0.23815993  0.33263350  0.25724929    -0.09500
C1631       C  0.24023097  0.35270146  0.27739759     0.05900
C1632       C  0.22272169  0.37498155  0.27722543    -0.13800
Br1633     Br  0.15099712  0.37142341  0.29268750    -0.05900
Br1634     Br  0.18907521  0.47659128  0.21822460    -0.00300
Br1635     Br  0.21408469  0.30722857  0.20998516     0.00200
Br1636     Br  0.22652921  0.40305218  0.30397361    -0.04200
Br1637     Br  0.11133044  0.42447172  0.29068933     0.00300
Br1638     Br  0.22569061  0.42166514  0.21976786    -0.03500
Br1639     Br  0.17146604  0.35916115  0.21121593    -0.04400
Br1640     Br  0.26639615  0.34927009  0.30598780    -0.00400
C1641       C  0.34778427  0.53975932  0.43113180     0.01000
C1642       C  0.32506772  0.55676205  0.43098972     0.03800
C1643       C  0.32471237  0.57971151  0.41441878    -0.12200
C1644       C  0.34697165  0.58555274  0.39788515     0.23100
C1645       C  0.36995306  0.56895815  0.39845889    -0.12800
C1646       C  0.37026396  0.54590757  0.41492318     0.04500
C1647       C  0.34475786  0.60719763  0.37758866     0.27000
C1648       C  0.33417140  0.60103514  0.35208354    -0.13500
C1649       C  0.33114646  0.62132472  0.33260471     0.05100
C1650       C  0.33746787  0.64867164  0.33917958    -0.09500
C1651       C  0.34971747  0.65423734  0.36458425     0.05900
C1652       C  0.35304602  0.63353171  0.38368721    -0.13800
Br1653     Br  0.40041886  0.57735117  0.37581157    -0.05900
Br1654     Br  0.29355134  0.54737814  0.45165934    -0.00300
Br1655     Br  0.32081843  0.60952434  0.29669804     0.00200
Br1656     Br  0.36921870  0.64086708  0.41838900    -0.04200
Br1657     Br  0.40110964  0.52228982  0.41468435     0.00300
Br1658     Br  0.29324540  0.60251774  0.41308711    -0.03500
Br1659     Br  0.32385774  0.56423978  0.34399659    -0.04400
Br1660     Br  0.36511557  0.68910423  0.37294359    -0.00400
C1661       C  0.33117880  0.33184930  0.34126326     0.01000
C1662       C  0.34875457  0.35405773  0.33803102     0.03800
C1663       C  0.34939279  0.37458730  0.35753535    -0.12200
C1664       C  0.33345144  0.37251939  0.38089251     0.23100
C1665       C  0.31671403  0.35001140  0.38476990    -0.12800
C1666       C  0.31491509  0.33007498  0.36464780     0.04500
C1667       C  0.33353442  0.39488514  0.40058876     0.27000
C1668       C  0.35377617  0.39633311  0.42041098    -0.13500
C1669       C  0.35674249  0.41990033  0.43590972     0.05100
C1670       C  0.33878666  0.44165061  0.43215871    -0.09500
C1671       C  0.31706883  0.43909959  0.41395436     0.05900
C1672       C  0.31472161  0.41590628  0.39787198    -0.13800
Br1673     Br  0.29631015  0.34675587  0.41773162    -0.05900
Br1674     Br  0.37301559  0.35621325  0.30762686    -0.00300
Br1675     Br  0.38652268  0.42284473  0.46078584     0.00200
Br1676     Br  0.28614972  0.41305285  0.37157427    -0.04200
Br1677     Br  0.28850512  0.30174831  0.36844860     0.00300
Br1678     Br  0.37197294  0.40588014  0.35225662    -0.03500
Br1679     Br  0.37761645  0.36609692  0.42577623    -0.04400
Br1680     Br  0.28990183  0.46685921  0.41166772    -0.00400
C1681       C  0.24241847  0.23863544  0.34574058     0.01000
C1682       C  0.24546843  0.21814227  0.36537565     0.03800
C1683       C  0.22530015  0.21392893  0.38477909    -0.12200
C1684       C  0.20159772  0.22934429  0.38405983     0.23100
C1685       C  0.19868235  0.25019246  0.36500174    -0.12800
C1686       C  0.21926211  0.25519066  0.34617040     0.04500
C1687       C  0.17893581  0.22251871  0.40215693     0.27000
C1688       C  0.16028832  0.20266816  0.39425165    -0.13500
C1689       C  0.13720372  0.19796659  0.40989111     0.05100
C1690       C  0.13250308  0.21341729  0.43337727    -0.09500
C1691       C  0.15219054  0.23214360  0.44217826     0.05900
C1692       C  0.17549637  0.23641312  0.42664747    -0.13800
Br1693     Br  0.16596026  0.27120564  0.36422026    -0.05900
Br1694     Br  0.27585768  0.19386904  0.36451210    -0.00300
Br1695     Br  0.11231275  0.16999045  0.39916874     0.00200
Br1696     Br  0.20262649  0.26170793  0.43840698    -0.04200
Br1697     Br  0.21580875  0.28511993  0.32148506     0.00300
Br1698     Br  0.22947620  0.18631809  0.41189542    -0.03500
Br1699     Br  0.16626648  0.18230005  0.36161258    -0.04400
Br1700     Br  0.14675756  0.25379342  0.47414364    -0.00400
C1701       C  0.03454937  0.22070489  0.42657233     0.01000
C1702       C  0.03516403  0.23986133  0.40531273     0.03800
C1703       C  0.01285997  0.24277541  0.38801862    -0.12200
C1704       C  0.98996332  0.22647382  0.39150711     0.23100
C1705       C  0.98902912  0.20771765  0.41278532    -0.12800
C1706       C  0.01116783  0.20484376  0.43034610     0.04500
C1707       C  0.96716305  0.22842461  0.37221038     0.27000
C1708       C  0.94667465  0.24761417  0.37622786    -0.13500
C1709       C  0.92525427  0.24966096  0.35767967     0.05100
C1710       C  0.92392316  0.23200182  0.33527612    -0.09500
C1711       C  0.94421467  0.21225724  0.33179841     0.05900
C1712       C  0.96599889  0.21089150  0.34989759    -0.13800
Br1713     Br  0.95737382  0.18558710  0.41733521    -0.05900
Br1714     Br  0.06608165  0.26294217  0.39979843    -0.00300
Br1715     Br  0.89865170  0.27762877  0.36251664     0.00200
Br1716     Br  0.99452113  0.18504797  0.34415601    -0.04200
Br1717     Br  0.00970902  0.17779749  0.45830175     0.00300
Br1718     Br  0.01350276  0.26908351  0.35928303    -0.03500
Br1719     Br  0.94829243  0.27120863  0.40717319    -0.04400
Br1720     Br  0.94161078  0.18572180  0.30334609    -0.00400
C1721       C  0.12601022  0.06423436  0.24116701     0.01000
C1722       C  0.14674375  0.05714757  0.25935256     0.03800
C1723       C  0.16928096  0.07408156  0.26247265    -0.12200
C1724       C  0.17090250  0.09839989  0.24793260     0.23100
C1725       C  0.15026557  0.10552935  0.22979178    -0.12800
C1726       C  0.12803475  0.08837758  0.22615659     0.04500
C1727       C  0.19467927  0.11620229  0.25095781     0.27000
C1728       C  0.19644802  0.13427991  0.27284818    -0.13500
C1729       C  0.21824666  0.15231189  0.27461961     0.05100
C1730       C  0.23798554  0.15271790  0.25416648    -0.09500
C1731       C  0.23646509  0.13417068  0.23260192     0.05900
C1732       C  0.21504065  0.11573355  0.23122122    -0.13800
Br1733     Br  0.15261129  0.13887579  0.20981135    -0.05900
Br1734     Br  0.14381667  0.02510109  0.28119108    -0.00300
Br1735     Br  0.22142382  0.17598869  0.30539967     0.00200
Br1736     Br  0.21313530  0.09008173  0.20193865    -0.04200
Br1737     Br  0.10106006  0.09761666  0.19957639     0.00300
Br1738     Br  0.19812566  0.06405523  0.28657135    -0.03500
Br1739     Br  0.16866496  0.13465805  0.30002345    -0.04400
Br1740     Br  0.26246051  0.13517057  0.20374108    -0.00400
C1741       C  0.91680176  0.14647207  0.24154598     0.01000
C1742       C  0.94041982  0.15136544  0.22630096     0.03800
C1743       C  0.96168319  0.13286224  0.22691829    -0.12200
C1744       C  0.95819548  0.10776401  0.23953905     0.23100
C1745       C  0.93380660  0.10156034  0.25250718    -0.12800
C1746       C  0.91365824  0.12134773  0.25480266     0.04500
C1747       C  0.98095717  0.08871562  0.24044188     0.27000
C1748       C  0.98823358  0.07416340  0.21713024    -0.13500
C1749       C  0.01183646  0.05863999  0.21710002     0.05100
C1750       C  0.02814517  0.05777479  0.24036433    -0.09500
C1751       C  0.02055206  0.07184649  0.26385799     0.05900
C1752       C  0.99686546  0.08721754  0.26393958    -0.13800
Br1753     Br  0.92860166  0.06614063  0.26778578    -0.05900
Br1754     Br  0.94362994  0.18231007  0.20287809    -0.00300
Br1755     Br  0.02301429  0.04058297  0.18440041     0.00200
Br1756     Br  0.98691546  0.10744178  0.29575456    -0.04200
Br1757     Br  0.88329724  0.11431292  0.27811264     0.00300
Br1758     Br  0.99621647  0.14250486  0.21170826    -0.03500
Br1759     Br  0.96666813  0.07679769  0.18480107    -0.04400
Br1760     Br  0.04282148  0.07049276  0.29578828    -0.00400
C1761       C  0.91709334  0.73877213  0.33669142     0.01000
C1762       C  0.93097495  0.76263817  0.34313257     0.03800
C1763       C  0.95332744  0.76179734  0.36048654    -0.12200
C1764       C  0.95967295  0.73778838  0.37427307     0.23100
C1765       C  0.94398506  0.71447198  0.36996305    -0.12800
C1766       C  0.92309687  0.71479036  0.35070902     0.04500
C1767       C  0.98298643  0.73708682  0.39304120     0.27000
C1768       C  0.00755333  0.72606512  0.38438090    -0.13500
C1769       C  0.02975417  0.72534505  0.40196574     0.05100
C1770       C  0.02852306  0.73841378  0.42744215    -0.09500
C1771       C  0.00370336  0.74973374  0.43597023     0.05900
C1772       C  0.98081077  0.74798544  0.41919884    -0.13800
Br1773     Br  0.95139007  0.68216060  0.39029983    -0.05900
Br1774     Br  0.91733522  0.79683317  0.33080440    -0.00300
Br1775     Br  0.06108762  0.70487545  0.39112258     0.00200
Br1776     Br  0.94634337  0.76092546  0.43170467    -0.04200
Br1777     Br  0.90242285  0.68261539  0.34394798     0.00300
Br1778     Br  0.97598757  0.79314377  0.36431147    -0.03500
Br1779     Br  0.01103907  0.71300554  0.34780094    -0.04400
Br1780     Br  0.00082157  0.76975743  0.46930742    -0.00400
C1781       C  0.23968277  0.75048391  0.34118117     0.01000
C1782       C  0.23558554  0.77505172  0.35489866     0.03800
C1783       C  0.21360259  0.77794299  0.37266435    -0.12200
C1784       C  0.19562222  0.75630749  0.37661112     0.23100
C1785       C  0.19951394  0.73191600  0.36260566    -0.12800
C1786       C  0.22124942  0.72917720  0.34471201     0.04500
C1787       C  0.17241956  0.75880502  0.39531598     0.27000
C1788       C  0.17420445  0.74794253  0.42143574    -0.13500
C1789       C  0.15100059  0.74557250  0.43761130     0.05100
C1790       C  0.12591396  0.75580818  0.42830318    -0.09500
C1791       C  0.12499775  0.76899764  0.40281894     0.05900
C1792       C  0.14790557  0.76953429  0.38611479    -0.13800
Br1793     Br  0.17472740  0.70231547  0.36776593    -0.05900
Br1794     Br  0.25890048  0.80527950  0.34780323    -0.00300
Br1795     Br  0.15417837  0.72588416  0.47111061     0.00200
Br1796     Br  0.14558141  0.78394565  0.34996034    -0.04200
Br1797     Br  0.22511824  0.69646469  0.32431217     0.00300
Br1798     Br  0.20773856  0.81155026  0.39129680    -0.03500
Br1799     Br  0.20865148  0.73523120  0.43434624    -0.04400
Br1800     Br  0.09296801  0.78744570  0.39037254    -0.00400
C1801       C  0.92257505  0.82786699  0.24081656     0.01000
C1802       C  0.91979638  0.85125186  0.22449969     0.03800
C1803       C  0.94155852  0.86935756  0.22131242    -0.12200
C1804       C  0.96629464  0.86453396  0.23434768     0.23100
C1805       C  0.96927236  0.84146286  0.25053242    -0.12800
C1806       C  0.94797135  0.82285393  0.25320643     0.04500
C1807       C  0.98961418  0.88321796  0.23060982     0.27000
C1808       C  0.01026674  0.87670813  0.21223443    -0.13500
C1809       C  0.03308532  0.89349381  0.20973685     0.05100
C1810       C  0.03582208  0.91679308  0.22611704    -0.09500
C1811       C  0.01501301  0.92311135  0.24470061     0.05900
C1812       C  0.99197508  0.90655028  0.24663891    -0.13800
Br1813     Br  0.00299161  0.83550854  0.26914243    -0.05900
Br1814     Br  0.88733975  0.85762673  0.20398961    -0.00300
Br1815     Br  0.06000215  0.88453113  0.18310835     0.00200
Br1816     Br  0.96390825  0.91505566  0.27220132    -0.04200
Br1817     Br  0.95506419  0.79020376  0.27320272     0.00300
Br1818     Br  0.93786150  0.90071193  0.19855256    -0.03500
Br1819     Br  0.00746305  0.84416994  0.19096225    -0.04400
Br1820     Br  0.01855493  0.95301038  0.26950431    -0.00400
C1821       C  0.24485923  0.83707664  0.25343918     0.01000
C1822       C  0.21778944  0.83154795  0.26090226     0.03800
C1823       C  0.19732139  0.85017564  0.25511520    -0.12200
C1824       C  0.20363616  0.87510518  0.24332966     0.23100
C1825       C  0.23058809  0.88212366  0.23853244    -0.12800
C1826       C  0.25131786  0.86342265  0.24379352     0.04500
C1827       C  0.18165817  0.89428856  0.23730276     0.27000
C1828       C  0.16961489  0.89452903  0.21153286    -0.13500
C1829       C  0.14630929  0.90997723  0.20704861     0.05100
C1830       C  0.13461352  0.92432332  0.22855547    -0.09500
C1831       C  0.14767031  0.92550689  0.25378802     0.05900
C1832       C  0.17122789  0.91052238  0.25813321    -0.13800
Br1833     Br  0.23873001  0.91756297  0.22451588    -0.05900
Br1834     Br  0.20817780  0.79975127  0.28138221    -0.00300
Br1835     Br  0.13084730  0.91228502  0.17142942     0.00200
Br1836     Br  0.18842611  0.91087130  0.29307212    -0.04200
Br1837     Br  0.28799478  0.87534467  0.23798352     0.00300
Br1838     Br  0.16020570  0.84159115  0.26320388    -0.03500
Br1839     Br  0.18428608  0.87262068  0.18291992    -0.04400
Br1840     Br  0.13264142  0.94663259  0.28284696    -0.00400
C1841       C  0.24055768  0.73931245  0.65867013     0.01000
C1842       C  0.23654206  0.71607043  0.64276037     0.03800
C1843       C  0.21565177  0.71542119  0.62352704    -0.12200
C1844       C  0.19744608  0.73718268  0.62163993     0.23100
C1845       C  0.20177748  0.76053298  0.63738366    -0.12800
C1846       C  0.22435113  0.76215548  0.65442728     0.04500
C1847       C  0.17392793  0.73568538  0.60306703     0.27000
C1848       C  0.17328380  0.75153036  0.57945704    -0.13500
C1849       C  0.15010088  0.75192857  0.56308293     0.05100
C1850       C  0.12758511  0.73579684  0.56983724    -0.09500
C1851       C  0.12895141  0.71871575  0.59267595     0.05900
C1852       C  0.15183823  0.71901245  0.60943088    -0.13800
Br1853     Br  0.17644804  0.79002474  0.63635631    -0.05900
Br1854     Br  0.25946073  0.68507126  0.64742522    -0.00300
Br1855     Br  0.14896209  0.77639366  0.53275986     0.00200
Br1856     Br  0.15250512  0.69721465  0.64174943    -0.04200
Br1857     Br  0.23513215  0.79642969  0.66927022     0.00300
Br1858     Br  0.21208512  0.68489987  0.59958659    -0.03500
Br1859     Br  0.20409284  0.77331751  0.56992058    -0.04400
Br1860     Br  0.09979552  0.69423594  0.60099559    -0.00400
C1861       C  0.92097157  0.74368246  0.66554303     0.01000
C1862       C  0.93414409  0.72017140  0.65686798     0.03800
C1863       C  0.95614119  0.72213014  0.63920835    -0.12200
C1864       C  0.96322737  0.74736638  0.62815018     0.23100
C1865       C  0.94923064  0.77078673  0.63608586    -0.12800
C1866       C  0.92915960  0.76906404  0.65592844     0.04500
C1867       C  0.98582636  0.74930029  0.60877305     0.27000
C1868       C  0.01049550  0.76045756  0.61706799    -0.13500
C1869       C  0.03205672  0.76207463  0.59884056     0.05100
C1870       C  0.03014281  0.74972680  0.57302527    -0.09500
C1871       C  0.00509540  0.73870456  0.56473352     0.05900
C1872       C  0.98280653  0.73952208  0.58226935    -0.13800
Br1873     Br  0.95732450  0.80509223  0.61959463    -0.05900
Br1874     Br  0.92174075  0.68537217  0.66901509    -0.00300
Br1875     Br  0.06341503  0.78274712  0.60940602     0.00200
Br1876     Br  0.94801699  0.72670033  0.57035542    -0.04200
Br1877     Br  0.91409461  0.80143954  0.67112724     0.00300
Br1878     Br  0.97709224  0.69044166  0.63096560    -0.03500
Br1879     Br  0.01513457  0.77244548  0.65395114    -0.04400
Br1880     Br  0.00097506  0.72046429  0.53052131    -0.00400
C1881       C  0.12751686  0.92109744  0.76258565     0.01000
C1882       C  0.13101149  0.90275865  0.78413132     0.03800
C1883       C  0.15376837  0.88596838  0.78488058    -0.12200
C1884       C  0.17308507  0.88751459  0.76419439     0.23100
C1885       C  0.17055878  0.90688106  0.74365320    -0.12800
C1886       C  0.14766201  0.92348982  0.74262054     0.04500
C1887       C  0.19422631  0.86668879  0.76222916     0.27000
C1888       C  0.21847267  0.86949929  0.77650034    -0.13500
C1889       C  0.23793760  0.84903641  0.77520670     0.05100
C1890       C  0.23433367  0.82671278  0.75786420    -0.09500
C1891       C  0.20887036  0.82295881  0.74529712     0.05900
C1892       C  0.18920512  0.84325031  0.74704603    -0.13800
Br1893     Br  0.19793671  0.90937309  0.71613963    -0.05900
Br1894     Br  0.10447045  0.90013619  0.81248515    -0.00300
Br1895     Br  0.26660942  0.84909651  0.80123004     0.00200
Br1896     Br  0.15514634  0.83920137  0.72849471    -0.04200
Br1897     Br  0.14279704  0.94718552  0.71214112     0.00300
Br1898     Br  0.15799950  0.85985307  0.81347538    -0.03500
Br1899     Br  0.22492408  0.90143793  0.79779020    -0.04400
Br1900     Br  0.19905768  0.78965875  0.72751895    -0.00400
C1901       C  0.02984506  0.91550696  0.75521752     0.01000
C1902       C  0.00770957  0.92278741  0.77161005     0.03800
C1903       C  0.98495300  0.90594292  0.77305578    -0.12200
C1904       C  0.98453568  0.88135847  0.75892149     0.23100
C1905       C  0.00678658  0.87350398  0.74328315    -0.12800
C1906       C  0.02930010  0.89055857  0.74117551     0.04500
C1907       C  0.96033608  0.86400650  0.75955650     0.27000
C1908       C  0.95841818  0.84291400  0.77840585    -0.13500
C1909       C  0.93667632  0.82485471  0.77716416     0.05100
C1910       C  0.91682327  0.82776642  0.75689535    -0.09500
C1911       C  0.91797346  0.84998131  0.73906593     0.05900
C1912       C  0.93992494  0.86782104  0.74023613    -0.13800
Br1913     Br  0.00608142  0.83922444  0.72463499    -0.05900
Br1914     Br  0.00919944  0.95443344  0.79417789    -0.00300
Br1915     Br  0.93371079  0.79692008  0.80415150     0.00200
Br1916     Br  0.94281450  0.89703503  0.71467932    -0.04200
Br1917     Br  0.05882186  0.87953033  0.71828244     0.00300
Br1918     Br  0.95426054  0.91622878  0.79459331    -0.03500
Br1919     Br  0.98601326  0.83845249  0.80548486    -0.04400
Br1920     Br  0.89028494  0.85588829  0.71230822    -0.00400
C1921       C  0.12687178  0.21705832  0.57267520     0.01000
C1922       C  0.13641081  0.19519403  0.58807531     0.03800
C1923       C  0.16013580  0.19784980  0.60338133    -0.12200
C1924       C  0.17487144  0.22213331  0.60260955     0.23100
C1925       C  0.16626745  0.24337139  0.58580891    -0.12800
C1926       C  0.14194895  0.24111227  0.57141408     0.04500
C1927       C  0.19788301  0.22636604  0.62126878     0.27000
C1928       C  0.19421957  0.24234588  0.64445299    -0.13500
C1929       C  0.21594812  0.24747756  0.66183081     0.05100
C1930       C  0.24084593  0.23413060  0.65791983    -0.09500
C1931       C  0.24432037  0.21759192  0.63481063     0.05900
C1932       C  0.22318776  0.21470893  0.61601705    -0.13800
Br1933     Br  0.18786975  0.27558931  0.58278760    -0.05900
Br1934     Br  0.11734181  0.16137848  0.58768055    -0.00300
Br1935     Br  0.21151864  0.27421156  0.68992631     0.00200
Br1936     Br  0.22864737  0.19456626  0.58312080    -0.04200
Br1937     Br  0.12851536  0.27154965  0.55128755     0.00300
Br1938     Br  0.17216923  0.16842450  0.62581558    -0.03500
Br1939     Br  0.15896975  0.25646598  0.65297307    -0.04400
Br1940     Br  0.27691193  0.19701652  0.62941575    -0.00400
C1941       C  0.91605544  0.23399541  0.65883479     0.01000
C1942       C  0.91149084  0.21865789  0.63495974     0.03800
C1943       C  0.93233063  0.21528722  0.61591569    -0.12200
C1944       C  0.95784832  0.22658172  0.62071390     0.23100
C1945       C  0.96236255  0.24207681  0.64403779    -0.12800
C1946       C  0.94143083  0.24645653  0.66256433     0.04500
C1947       C  0.98056119  0.22134131  0.60201424     0.27000
C1948       C  0.99790112  0.19950060  0.60702749    -0.13500
C1949       C  0.02174487  0.19660761  0.59201154     0.05100
C1950       C  0.02790584  0.21505182  0.57118233    -0.09500
C1951       C  0.00967348  0.23611847  0.56524074     0.05900
C1952       C  0.98620561  0.23939123  0.58084357    -0.13800
Br1953     Br  0.99775795  0.25672319  0.65093842    -0.05900
Br1954     Br  0.87751465  0.20086208  0.62817381    -0.00300
Br1955     Br  0.04570224  0.16720225  0.60020027     0.00200
Br1956     Br  0.96219741  0.26919688  0.57404889    -0.04200
Br1957     Br  0.94756609  0.27130265  0.69186472     0.00300
Br1958     Br  0.92652426  0.19439944  0.58350217    -0.03500
Br1959     Br  0.98899480  0.17390049  0.63500738    -0.04400
Br1960     Br  0.01761600  0.26184696  0.53711094    -0.00400
C1961       C  0.23751007  0.15028041  0.74794213     0.01000
C1962       C  0.21755497  0.15106750  0.72763043     0.03800
C1963       C  0.19524566  0.13362057  0.72885973    -0.12200
C1964       C  0.19345747  0.11420773  0.74954538     0.23100
C1965       C  0.21407287  0.11243924  0.76904945    -0.12800
C1966       C  0.23576816  0.13074657  0.76859295     0.04500
C1967       C  0.16983944  0.09575833  0.75078143     0.27000
C1968       C  0.14890326  0.10068957  0.76933970    -0.13500
C1969       C  0.12634142  0.08349501  0.77020273     0.05100
C1970       C  0.12406687  0.06183314  0.75180198    -0.09500
C1971       C  0.14481237  0.05727749  0.73286367     0.05900
C1972       C  0.16790929  0.07376882  0.73283406    -0.13800
Br1973     Br  0.21242402  0.08492730  0.79649596    -0.05900
Br1974     Br  0.22137817  0.17503173  0.69721852    -0.00300
Br1975     Br  0.09864071  0.08960259  0.79683505     0.00200
Br1976     Br  0.19677217  0.06670412  0.70773862    -0.04200
Br1977     Br  0.26213079  0.12993229  0.79725354     0.00300
Br1978     Br  0.16675071  0.13669565  0.70249689    -0.03500
Br1979     Br  0.15072411  0.13169449  0.79287433    -0.04400
Br1980     Br  0.14058442  0.03023522  0.70514050    -0.00400
C1981       C  0.91615238  0.15215772  0.74689598     0.01000
C1982       C  0.92324165  0.14394795  0.72059935     0.03800
C1983       C  0.94371736  0.12477642  0.71670399    -0.12200
C1984       C  0.95907678  0.11582498  0.73887010     0.23100
C1985       C  0.95324676  0.12558227  0.76500619    -0.12800
C1986       C  0.93122309  0.14297707  0.76913811     0.04500
C1987       C  0.98159905  0.09644129  0.73501359     0.27000
C1988       C  0.97831464  0.06931740  0.74248594    -0.13500
C1989       C  0.00078376  0.05196340  0.74397045     0.05100
C1990       C  0.02675669  0.06135637  0.73635874    -0.09500
C1991       C  0.02883657  0.08770702  0.72499886     0.05900
C1992       C  0.00666896  0.10539304  0.72547194    -0.13800
Br1993     Br  0.97633877  0.11611842  0.79488094    -0.05900
Br1994     Br  0.90672564  0.16096972  0.68974317    -0.00300
Br1995     Br  0.99493575  0.01615017  0.75779149     0.00200
Br1996     Br  0.01078399  0.14234995  0.71377129    -0.04200
Br1997     Br  0.92222349  0.15486534  0.80507380     0.00300
Br1998     Br  0.95078404  0.11094764  0.68102027    -0.03500
Br1999     Br  0.94263332  0.05636070  0.75104705    -0.04400
Br2000     Br  0.06125728  0.10003791  0.70708566    -0.00400
C2001       C  0.50589907  0.04027306  0.24209585     0.01000
C2002       C  0.51149627  0.06192423  0.25984338     0.03800
C2003       C  0.49608050  0.08570045  0.25854336    -0.12200
C2004       C  0.47477885  0.08777385  0.23992559     0.23100
C2005       C  0.46992232  0.06676350  0.22143474    -0.12800
C2006       C  0.48550149  0.04310603  0.22240646     0.04500
C2007       C  0.45541171  0.11040471  0.24206373     0.27000
C2008       C  0.43351844  0.10802906  0.25986251    -0.13500
C2009       C  0.41472801  0.12904816  0.26217666     0.05100
C2010       C  0.41705849  0.15232343  0.24579567    -0.09500
C2011       C  0.43907748  0.15451117  0.22772612     0.05900
C2012       C  0.45854093  0.13386188  0.22644364    -0.13800
Br2013     Br  0.44131836  0.07026436  0.19527444    -0.05900
Br2014     Br  0.53876463  0.05854241  0.28741870    -0.00300
Br2015     Br  0.38671304  0.12590681  0.28898505     0.00200
Br2016     Br  0.48966539  0.13752469  0.20345914    -0.04200
Br2017     Br  0.47912850  0.01492685  0.19623391     0.00300
Br2018     Br  0.50328674  0.11527934  0.28286499    -0.03500
Br2019     Br  0.42944051  0.07568301  0.28123061    -0.04400
Br2020     Br  0.44191794  0.18457194  0.20313767    -0.00400
C2021       C  0.50752834  0.94116751  0.24957617     0.01000
C2022       C  0.49014255  0.93617679  0.27153663     0.03800
C2023       C  0.47635274  0.91144871  0.27338606    -0.12200
C2024       C  0.47931050  0.89187699  0.25298748     0.23100
C2025       C  0.49720703  0.89649284  0.23144192    -0.12800
C2026       C  0.51127078  0.92108709  0.22968850     0.04500
C2027       C  0.46020114  0.86887116  0.25173880     0.27000
C2028       C  0.46593300  0.84411127  0.26434832    -0.13500
C2029       C  0.44690198  0.82292715  0.26366039     0.05100
C2030       C  0.42186427  0.82652918  0.25026099    -0.09500
C2031       C  0.41663816  0.85151771  0.23720468     0.05900
C2032       C  0.43563597  0.87246434  0.23817272    -0.13800
Br2033     Br  0.50129721  0.86948965  0.20368139    -0.05900
Br2034     Br  0.48493723  0.96321037  0.29907987    -0.00300
Br2035     Br  0.45499007  0.78993051  0.28271915     0.00200
Br2036     Br  0.42787422  0.90677354  0.22125962    -0.04200
Br2037     Br  0.53374743  0.92808465  0.19869919     0.00300
Br2038     Br  0.45256218  0.90452765  0.30337395    -0.03500
Br2039     Br  0.49958907  0.83982648  0.28332848    -0.04400
Br2040     Br  0.38388399  0.85784151  0.21700303    -0.00400
C2041       C  0.31111916  0.04063991  0.07335506     0.01000
C2042       C  0.29507104  0.04128027  0.09701041     0.03800
C2043       C  0.29677980  0.06327120  0.11484477    -0.12200
C2044       C  0.31362323  0.08517132  0.10869245     0.23100
C2045       C  0.32840619  0.08545558  0.08454360    -0.12800
C2046       C  0.32734961  0.06326993  0.06691177     0.04500
C2047       C  0.31624355  0.10792897  0.12775483     0.27000
C2048       C  0.29860609  0.13001577  0.12585135    -0.13500
C2049       C  0.30184444  0.15226599  0.14312351     0.05100
C2050       C  0.32238613  0.15206203  0.16288546    -0.09500
C2051       C  0.34049143  0.13014369  0.16420620     0.05900
C2052       C  0.33731936  0.10807474  0.14673908    -0.13800
Br2053     Br  0.35117258  0.11602844  0.07647348    -0.05900
Br2054     Br  0.27000350  0.01254064  0.10502989    -0.00300
Br2055     Br  0.27747650  0.18240647  0.13992007     0.00200
Br2056     Br  0.36188512  0.07796806  0.14862463    -0.04200
Br2057     Br  0.34997843  0.06393656  0.03526988     0.00300
Br2058     Br  0.27685625  0.06314909  0.14830659    -0.03500
Br2059     Br  0.26981439  0.12940523  0.09967622    -0.04400
Br2060     Br  0.37072305  0.13090568  0.18875683    -0.00400
C2061       C  0.32426804  0.94314673  0.07399916     0.01000
C2062       C  0.31023658  0.91942356  0.06687110     0.03800
C2063       C  0.31404325  0.89568316  0.08190505    -0.12200
C2064       C  0.32951633  0.89629569  0.10574210     0.23100
C2065       C  0.34291672  0.92012490  0.11335895    -0.12800
C2066       C  0.34107085  0.94322278  0.09709017     0.04500
C2067       C  0.32931784  0.87297850  0.12441249     0.27000
C2068       C  0.30655125  0.86844601  0.14077334    -0.13500
C2069       C  0.30646134  0.84701203  0.15925428     0.05100
C2070       C  0.32994702  0.83160708  0.16318147    -0.09500
C2071       C  0.35271007  0.83604414  0.14684140     0.05900
C2072       C  0.35210351  0.85620651  0.12690104    -0.13800
Br2073     Br  0.36280531  0.92146338  0.14687464    -0.05900
Br2074     Br  0.28310177  0.92014594  0.03895801    -0.00300
Br2075     Br  0.27358101  0.83748399  0.17761243     0.00200
Br2076     Br  0.38238928  0.86092478  0.10305020    -0.04200
Br2077     Br  0.36190561  0.97473618  0.10679501     0.00300
Br2078     Br  0.29765004  0.86235701  0.07029032    -0.03500
Br2079     Br  0.27582324  0.89221956  0.13856215    -0.04400
Br2080     Br  0.38492457  0.81497968  0.15236116    -0.00400
C2081       C  0.64972792  0.04011854  0.76539863     0.01000
C2082       C  0.66902506  0.04406009  0.78590165     0.03800
C2083       C  0.68655676  0.06622736  0.78467063    -0.12200
C2084       C  0.68367395  0.08528285  0.76384748     0.23100
C2085       C  0.66324101  0.08229583  0.74437498    -0.12800
C2086       C  0.64682851  0.05927358  0.74459942     0.04500
C2087       C  0.70290228  0.10780464  0.76126625     0.27000
C2088       C  0.69757449  0.13256680  0.77394143    -0.13500
C2089       C  0.71434428  0.15491213  0.76912936     0.05100
C2090       C  0.73748228  0.15205700  0.75262272    -0.09500
C2091       C  0.74246347  0.12699300  0.73971696     0.05900
C2092       C  0.72528050  0.10498243  0.74419653    -0.13800
Br2093     Br  0.65838561  0.10954959  0.71699220    -0.05900
Br2094     Br  0.67105426  0.01934934  0.81592928    -0.00300
Br2095     Br  0.70509530  0.18893979  0.78562852     0.00200
Br2096     Br  0.73234413  0.07062508  0.72712404    -0.04200
Br2097     Br  0.62227015  0.05295686  0.71504407     0.00300
Br2098     Br  0.71509223  0.07002624  0.81080656    -0.03500
Br2099     Br  0.66753442  0.13535101  0.79850815    -0.04400
Br2100     Br  0.77178714  0.12265552  0.71443526    -0.00400
C2101       C  0.64980820  0.94238342  0.75713326     0.01000
C2102       C  0.66883161  0.94045242  0.73608843     0.03800
C2103       C  0.68616578  0.91816594  0.73471339    -0.12200
C2104       C  0.68287731  0.89653934  0.75276065     0.23100
C2105       C  0.66287350  0.89771698  0.77289437    -0.12800
C2106       C  0.64710700  0.92111202  0.77580077     0.04500
C2107       C  0.70171694  0.87343340  0.75167690     0.27000
C2108       C  0.69730333  0.85199822  0.73357278    -0.13500
C2109       C  0.71563000  0.83032106  0.73235872     0.05100
C2110       C  0.73877752  0.83029981  0.74906712    -0.09500
C2111       C  0.74276502  0.85186429  0.76744887     0.05900
C2112       C  0.72451435  0.87343083  0.76842569    -0.13800
Br2113     Br  0.65766633  0.86748696  0.79680371    -0.05900
Br2114     Br  0.67067623  0.96790571  0.70852031    -0.00300
Br2115     Br  0.70920047  0.80146840  0.70696601     0.00200
Br2116     Br  0.73107382  0.90368575  0.79215991    -0.04200
Br2117     Br  0.62385076  0.92497619  0.80673521     0.00300
Br2118     Br  0.71538741  0.91785171  0.70906791    -0.03500
Br2119     Br  0.66655123  0.85310991  0.70978570    -0.04400
Br2120     Br  0.77223289  0.85175991  0.79276341    -0.00400
C2121       C  0.81030863  0.04222305  0.92662567     0.01000
C2122       C  0.78848525  0.05182781  0.91125326     0.03800
C2123       C  0.79115838  0.07571557  0.89637203    -0.12200
C2124       C  0.81561871  0.08998230  0.89700181     0.23100
C2125       C  0.83721140  0.08082849  0.91295925    -0.12800
C2126       C  0.83455406  0.05691505  0.92781111     0.04500
C2127       C  0.81980879  0.11271834  0.87841837     0.27000
C2128       C  0.83156520  0.10767444  0.85321232    -0.13500
C2129       C  0.83613374  0.12892729  0.83523909     0.05100
C2130       C  0.82778640  0.15551581  0.84195546    -0.09500
C2131       C  0.81793483  0.16071349  0.86847000     0.05900
C2132       C  0.81310589  0.13908950  0.88617315    -0.13800
Br2133     Br  0.87088601  0.10029746  0.91303066    -0.05900
Br2134     Br  0.75494495  0.03238068  0.91057419    -0.00300
Br2135     Br  0.85588261  0.12087737  0.80250410     0.00200
Br2136     Br  0.79621842  0.14513356  0.92077567    -0.04200
Br2137     Br  0.86467614  0.04341591  0.94837858     0.00300
Br2138     Br  0.76188042  0.08836138  0.87409594    -0.03500
Br2139     Br  0.84065733  0.07110987  0.84306648    -0.04400
Br2140     Br  0.81183226  0.19681068  0.88212026    -0.00400
C2141       C  0.81041813  0.94373775  0.92408055     0.01000
C2142       C  0.79123723  0.93827271  0.90377284     0.03800
C2143       C  0.79387145  0.91527376  0.88746750    -0.12200
C2144       C  0.81542155  0.89735133  0.89164259     0.23100
C2145       C  0.83437774  0.90245600  0.91219862    -0.12800
C2146       C  0.83203266  0.92574859  0.92826429     0.04500
C2147       C  0.81857097  0.87367739  0.87369423     0.27000
C2148       C  0.80207028  0.85084617  0.87710964    -0.13500
C2149       C  0.80353832  0.82935055  0.85861340     0.05100
C2150       C  0.82295253  0.82980163  0.83772568    -0.09500
C2151       C  0.84044546  0.85217139  0.83537778     0.05900
C2152       C  0.83735227  0.87452859  0.85248156    -0.13800
Br2153     Br  0.86379595  0.87768990  0.91790871    -0.05900
Br2154     Br  0.76077619  0.96173264  0.89854609    -0.00300
Br2155     Br  0.77723795  0.80074598  0.86079413     0.00200
Br2156     Br  0.85790014  0.90695831  0.84603410    -0.04200
Br2157     Br  0.85946490  0.93379250  0.95470410     0.00300
Br2158     Br  0.76823188  0.90852049  0.85893649    -0.03500
Br2159     Br  0.77686306  0.84956733  0.90674002    -0.04400
Br2160     Br  0.86964085  0.85202749  0.80968670    -0.00400
C2161       C  0.30177007  0.41645261  0.04532797     0.01000
C2162       C  0.28510012  0.39350428  0.04882671     0.03800
C2163       C  0.28872422  0.37633239  0.07125568    -0.12200
C2164       C  0.30826003  0.38240879  0.09096399     0.23100
C2165       C  0.32470984  0.40529765  0.08776765    -0.12800
C2166       C  0.32186639  0.42196631  0.06489411     0.04500
C2167       C  0.31210271  0.36438167  0.11474165     0.27000
C2168       C  0.29559710  0.36709270  0.13773312    -0.13500
C2169       C  0.29964974  0.35037815  0.16042038     0.05100
C2170       C  0.31996489  0.33040661  0.16001177    -0.09500
C2171       C  0.33660178  0.32794684  0.13697738     0.05900
C2172       C  0.33272371  0.34489960  0.11454242    -0.13800
Br2173     Br  0.35177078  0.41326491  0.11463516    -0.05900
Br2174     Br  0.25648920  0.38575223  0.02363622    -0.00300
Br2175     Br  0.27636007  0.35417815  0.19135288     0.00200
Br2176     Br  0.35561661  0.34136507  0.08327263    -0.04200
Br2177     Br  0.34730593  0.45091243  0.05967628     0.00300
Br2178     Br  0.26747800  0.34390634  0.07479110    -0.03500
Br2179     Br  0.26705900  0.39347417  0.13778594    -0.04400
Br2180     Br  0.36543736  0.30183855  0.13618989    -0.00400
C2181       C  0.32081860  0.33233415  0.83720780     0.01000
C2182       C  0.33423378  0.33045825  0.86239500     0.03800
C2183       C  0.32935942  0.34972092  0.88275418    -0.12200
C2184       C  0.31267705  0.37213191  0.87758375     0.23100
C2185       C  0.30087400  0.37514589  0.85193217    -0.12800
C2186       C  0.30390215  0.35482634  0.83224921     0.04500
C2187       C  0.30738281  0.39212558  0.89943491     0.27000
C2188       C  0.28273246  0.39175174  0.91361720    -0.13500
C2189       C  0.27914026  0.40847119  0.93633317     0.05100
C2190       C  0.30083688  0.42381993  0.94628501    -0.09500
C2191       C  0.32490627  0.42534981  0.93130648     0.05900
C2192       C  0.32773585  0.41031498  0.90735925    -0.13800
Br2193     Br  0.28082638  0.40744575  0.84372451    -0.05900
Br2194     Br  0.36050275  0.30247071  0.86896105    -0.00300
Br2195     Br  0.24425450  0.41148733  0.95307121     0.00200
Br2196     Br  0.35961225  0.41421249  0.88551821    -0.04200
Br2197     Br  0.28280587  0.35722511  0.79957941     0.00300
Br2198     Br  0.34526115  0.34524123  0.91808829    -0.03500
Br2199     Br  0.25436691  0.36744875  0.90279688    -0.04400
Br2200     Br  0.35464262  0.44671550  0.94441603    -0.00400
C2201       C  0.23371963  0.23951354  0.16554299     0.01000
C2202       C  0.23478253  0.25689354  0.14293439     0.03800
C2203       C  0.21569324  0.25448827  0.12204311    -0.12200
C2204       C  0.19510525  0.23500094  0.12364801     0.23100
C2205       C  0.19292675  0.21881992  0.14690622    -0.12800
C2206       C  0.21240712  0.22067214  0.16756395     0.04500
C2207       C  0.17729794  0.23016442  0.09988919     0.27000
C2208       C  0.15636596  0.24826196  0.09357996    -0.13500
C2209       C  0.14244629  0.24593644  0.06887360     0.05100
C2210       C  0.14758738  0.22392580  0.05144187    -0.09500
C2211       C  0.16721281  0.20469398  0.05887107     0.05900
C2212       C  0.18266538  0.20836618  0.08243158    -0.13800
Br2213     Br  0.16325785  0.19391244  0.15015114    -0.05900
Br2214     Br  0.26203424  0.28457006  0.14049151    -0.00300
Br2215     Br  0.11858773  0.27463450  0.05788525     0.00200
Br2216     Br  0.21202653  0.18408403  0.09028397    -0.04200
Br2217     Br  0.21083051  0.19570957  0.19734688     0.00300
Br2218     Br  0.21806438  0.27762229  0.09079043    -0.03500
Br2219     Br  0.14712545  0.27647543  0.11872849    -0.04400
Br2220     Br  0.17254357  0.17270414  0.03748009    -0.00400
C2221       C  0.15206803  0.22160917  0.95237921     0.01000
C2222       C  0.15053465  0.24455025  0.93560087     0.03800
C2223       C  0.16687555  0.24636448  0.91256243    -0.12200
C2224       C  0.18527510  0.22560303  0.90655113     0.23100
C2225       C  0.18671399  0.20261150  0.92314886    -0.12800
C2226       C  0.16957110  0.20029248  0.94559044     0.04500
C2227       C  0.20382040  0.22873058  0.88341050     0.27000
C2228       C  0.19933070  0.21451122  0.85919549    -0.13500
C2229       C  0.21692160  0.21799152  0.83723253     0.05100
C2230       C  0.23771742  0.23741915  0.83867487    -0.09500
C2231       C  0.24141853  0.25234642  0.86276332     0.05900
C2232       C  0.22548737  0.24686773  0.88544276    -0.13800
Br2233     Br  0.21292700  0.17485322  0.91573575    -0.05900
Br2234     Br  0.12701931  0.27423290  0.94465036    -0.00300
Br2235     Br  0.21380146  0.19418972  0.80654466     0.00200
Br2236     Br  0.23391945  0.26344189  0.91974392    -0.04200
Br2237     Br  0.16895276  0.16724289  0.96590843     0.00300
Br2238     Br  0.16470701  0.27774055  0.88955995    -0.03500
Br2239     Br  0.16934578  0.18989547  0.85634858    -0.04400
Br2240     Br  0.26761846  0.28113215  0.86485307    -0.00400
C2241       C  0.82476314  0.65441474  0.15681691     0.01000
C2242       C  0.80153640  0.63935870  0.15051381     0.03800
C2243       C  0.80237693  0.62011962  0.12966802    -0.12200
C2244       C  0.82590340  0.61721386  0.11407408     0.23100
C2245       C  0.84904211  0.63245989  0.12028366    -0.12800
C2246       C  0.84873145  0.65030533  0.14225129     0.04500
C2247       C  0.82639856  0.59848296  0.09085200     0.27000
C2248       C  0.84008400  0.57376634  0.09296697    -0.13500
C2249       C  0.84414275  0.55780756  0.06990426     0.05100
C2250       C  0.83177125  0.56494350  0.04522686    -0.09500
C2251       C  0.81625022  0.58892745  0.04374210     0.05900
C2252       C  0.81458212  0.60612996  0.06622305    -0.13800
Br2253     Br  0.88101517  0.62929606  0.09836855    -0.05900
Br2254     Br  0.76833426  0.64597518  0.16949080    -0.00300
Br2255     Br  0.86918646  0.52811952  0.07190129     0.00200
Br2256     Br  0.79651539  0.64052387  0.06326157    -0.04200
Br2257     Br  0.88153707  0.66800228  0.15338439     0.00300
Br2258     Br  0.77150408  0.59762022  0.12242493    -0.03500
Br2259     Br  0.85313585  0.56184564  0.12765503    -0.04400
Br2260     Br  0.79619557  0.59836166  0.01160505    -0.00400
C2261       C  0.83939089  0.55808069  0.94794538     0.01000
C2262       C  0.86229694  0.56966627  0.93611429     0.03800
C2263       C  0.85953373  0.58521682  0.91264215    -0.12200
C2264       C  0.83362818  0.59068242  0.90228314     0.23100
C2265       C  0.81072946  0.57876010  0.91407394    -0.12800
C2266       C  0.81373440  0.56189180  0.93652881     0.04500
C2267       C  0.83031712  0.61124707  0.88102968     0.27000
C2268       C  0.83382266  0.63856766  0.88765534    -0.13500
C2269       C  0.83268266  0.65831843  0.86742279     0.05100
C2270       C  0.82548707  0.65102228  0.84052889    -0.09500
C2271       C  0.81972488  0.62351027  0.83469581     0.05900
C2272       C  0.82352303  0.60368139  0.85458259    -0.13800
Br2273     Br  0.77511753  0.58706911  0.90083497    -0.05900
Br2274     Br  0.89700398  0.56560414  0.95309932    -0.00300
Br2275     Br  0.84276516  0.69468230  0.87764084     0.00200
Br2276     Br  0.81974574  0.56591305  0.84566975    -0.04200
Br2277     Br  0.78246566  0.54554534  0.95297970     0.00300
Br2278     Br  0.89100847  0.60013739  0.89537759    -0.03500
Br2279     Br  0.84028650  0.64882465  0.92485841    -0.04400
Br2280     Br  0.80469280  0.61220458  0.80042949    -0.00400
C2281       C  0.00729023  0.74841593  0.04666471     0.01000
C2282       C  0.99193058  0.77193038  0.05068151     0.03800
C2283       C  0.97414679  0.77353823  0.07260890    -0.12200
C2284       C  0.97158517  0.75149906  0.09028214     0.23100
C2285       C  0.98722613  0.72812739  0.08649907    -0.12800
C2286       C  0.00518189  0.72661160  0.06470396     0.04500
C2287       C  0.95103968  0.75198064  0.11171206     0.27000
C2288       C  0.95730151  0.76239994  0.13727264    -0.13500
C2289       C  0.93826004  0.76110028  0.15817801     0.05100
C2290       C  0.91290842  0.74865681  0.15372368    -0.09500
C2291       C  0.90603023  0.74030062  0.12700720     0.05900
C2292       C  0.92525703  0.74178253  0.10631009    -0.13800
Br2293     Br  0.98284956  0.69771967  0.11039316    -0.05900
Br2294     Br  0.99486251  0.80163570  0.02573540    -0.00300
Br2295     Br  0.94656969  0.77914833  0.19167248     0.00200
Br2296     Br  0.91648273  0.72997826  0.07009835    -0.04200
Br2297     Br  0.02532939  0.69394020  0.05837145     0.00300
Br2298     Br  0.95236399  0.80531838  0.07787118    -0.03500
Br2299     Br  0.99201886  0.77890779  0.14323674    -0.04400
Br2300     Br  0.87051317  0.72736033  0.11711375    -0.00400
C2301       C  0.91005908  0.73390662  0.84462322     0.01000
C2302       C  0.92852601  0.71229825  0.84570902     0.03800
C2303       C  0.94759100  0.71096641  0.86668511    -0.12200
C2304       C  0.94781724  0.73080140  0.88705564     0.23100
C2305       C  0.92865097  0.75177826  0.88657988    -0.12800
C2306       C  0.91012481  0.75361538  0.86517982     0.04500
C2307       C  0.96904072  0.73053020  0.90820333     0.27000
C2308       C  0.96708708  0.71290428  0.93037057    -0.13500
C2309       C  0.98680556  0.71353284  0.95075504     0.05100
C2310       C  0.00746154  0.73317529  0.95019228    -0.09500
C2311       C  0.00942711  0.75071606  0.92789409     0.05900
C2312       C  0.99084492  0.74866218  0.90648513    -0.13800
Br2313     Br  0.92805841  0.77823928  0.91516681    -0.05900
Br2314     Br  0.92728020  0.68396607  0.81900670    -0.00300
Br2315     Br  0.98541534  0.68735484  0.97959915     0.00200
Br2316     Br  0.99459791  0.77125083  0.87498839    -0.04200
Br2317     Br  0.88610953  0.78421268  0.86317275     0.00300
Br2318     Br  0.97387472  0.68232445  0.86723166    -0.03500
Br2319     Br  0.93660629  0.68893490  0.93354477    -0.04400
Br2320     Br  0.03553730  0.77942511  0.92781384    -0.00400
C2321       C  0.41740647  0.15020562  0.75977615     0.01000
C2322       C  0.41538497  0.12628151  0.74442626     0.03800
C2323       C  0.43342852  0.10502881  0.74897000    -0.12200
C2324       C  0.45480816  0.10824677  0.76733931     0.23100
C2325       C  0.45764221  0.13241033  0.78192629    -0.12800
C2326       C  0.43860251  0.15314784  0.77871274     0.04500
C2327       C  0.47499786  0.08651813  0.76987277     0.27000
C2328       C  0.47244550  0.06692223  0.79024147    -0.13500
C2329       C  0.48915825  0.04404084  0.78996244     0.05100
C2330       C  0.50822861  0.04063685  0.76915239    -0.09500
C2331       C  0.51149192  0.06090795  0.74943437     0.05900
C2332       C  0.49505766  0.08394105  0.75000036    -0.13800
Br2333     Br  0.48780552  0.13699534  0.80607917    -0.05900
Br2334     Br  0.38934013  0.12307754  0.71559705    -0.00300
Br2335     Br  0.48588532  0.01732802  0.81804775     0.00200
Br2336     Br  0.49883211  0.11147497  0.72269575    -0.04200
Br2337     Br  0.44115497  0.18468068  0.80147128     0.00300
Br2338     Br  0.42900432  0.07130931  0.72992416    -0.03500
Br2339     Br  0.44519976  0.07094170  0.81769329    -0.04400
Br2340     Br  0.53662378  0.05621047  0.72011155    -0.00400
C2341       C  0.41696119  0.83265475  0.74645043     0.01000
C2342       C  0.43595598  0.83398173  0.72525180     0.03800
C2343       C  0.45600363  0.85413717  0.72541532    -0.12200
C2344       C  0.45669339  0.87331589  0.74640260     0.23100
C2345       C  0.43786984  0.87189351  0.76755042    -0.12800
C2346       C  0.41847325  0.85132696  0.76785230     0.04500
C2347       C  0.47603162  0.89608095  0.74594070     0.27000
C2348       C  0.49974186  0.89497823  0.76146738    -0.13500
C2349       C  0.51546328  0.91833989  0.76515263     0.05100
C2350       C  0.50758850  0.94296653  0.75295101    -0.09500
C2351       C  0.48455795  0.94343815  0.73605072     0.05900
C2352       C  0.46877904  0.92012520  0.73282922    -0.13800
Br2353     Br  0.43846128  0.89859014  0.79598577    -0.05900
Br2354     Br  0.43389185  0.80900584  0.69543608    -0.00300
Br2355     Br  0.54641178  0.91645947  0.78875992     0.00200
Br2356     Br  0.43626484  0.92125949  0.71143164    -0.04200
Br2357     Br  0.39530468  0.84773872  0.79869444     0.00300
Br2358     Br  0.48233007  0.85587403  0.69687465    -0.03500
Br2359     Br  0.50971036  0.86159947  0.77883455    -0.04400
Br2360     Br  0.47447048  0.97560204  0.71646688    -0.00400
C2361       C  0.32821016  0.04236310  0.93228371     0.01000
C2362       C  0.34622020  0.06363933  0.93787372     0.03800
C2363       C  0.34480949  0.08764614  0.92285003    -0.12200
C2364       C  0.32677672  0.08959850  0.90098890     0.23100
C2365       C  0.30870142  0.06841217  0.89548018    -0.12800
C2366       C  0.30889073  0.04517437  0.91160285     0.04500
C2367       C  0.32813693  0.11281816  0.88234620     0.27000
C2368       C  0.30817962  0.13296616  0.88303967    -0.13500
C2369       C  0.30749327  0.15290334  0.86288507     0.05100
C2370       C  0.32746166  0.15328432  0.84263508    -0.09500
C2371       C  0.34827057  0.13394916  0.84294887     0.05900
C2372       C  0.34835462  0.11350649  0.86246714    -0.13800
Br2373     Br  0.28423667  0.07088256  0.86524269    -0.05900
Br2374     Br  0.37435244  0.05909522  0.96429490    -0.00300
Br2375     Br  0.27811071  0.17832173  0.86205063     0.00200
Br2376     Br  0.37576480  0.08588893  0.86144675    -0.04200
Br2377     Br  0.28215020  0.01750198  0.90569049     0.00300
Br2378     Br  0.36767866  0.11781741  0.93182531    -0.03500
Br2379     Br  0.28157345  0.13274589  0.91137916    -0.04400
Br2380     Br  0.37726738  0.13572692  0.81719117    -0.00400
C2381       C  0.33594803  0.94442062  0.93118365     0.01000
C2382       C  0.31284184  0.92860784  0.92652209     0.03800
C2383       C  0.31412249  0.90652782  0.90878929    -0.12200
C2384       C  0.33870491  0.89967310  0.89642269     0.23100
C2385       C  0.36203707  0.91494534  0.90176213    -0.12800
C2386       C  0.36052596  0.93764956  0.91872483     0.04500
C2387       C  0.33922238  0.87800248  0.87584945     0.27000
C2388       C  0.34366031  0.85115731  0.88342046    -0.13500
C2389       C  0.34225324  0.83036929  0.86404342     0.05100
C2390       C  0.33537543  0.83631965  0.83663636    -0.09500
C2391       C  0.33307408  0.86412969  0.82903603     0.05900
C2392       C  0.33459825  0.88452944  0.84873796    -0.13800
Br2393     Br  0.39566252  0.90534435  0.88482997    -0.05900
Br2394     Br  0.27896592  0.93836630  0.94287474    -0.00300
Br2395     Br  0.35232468  0.79457341  0.87601359     0.00200
Br2396     Br  0.33007658  0.92206107  0.83891434    -0.04200
Br2397     Br  0.39184821  0.95999427  0.92428418     0.00300
Br2398     Br  0.28187392  0.88667972  0.89986774    -0.03500
Br2399     Br  0.35175984  0.84322967  0.92076232    -0.04400
Br2400     Br  0.32928167  0.87638628  0.79198530    -0.00400
C2401       C  0.73873970  0.15258832  0.25001112     0.01000
C2402       C  0.73948876  0.13174853  0.23054728     0.03800
C2403       C  0.72090030  0.11042193  0.23165909    -0.12200
C2404       C  0.70041704  0.11042351  0.25129097     0.23100
C2405       C  0.69894621  0.13165250  0.27018033    -0.12800
C2406       C  0.71853665  0.15225713  0.27007661     0.04500
C2407       C  0.68100324  0.08760494  0.25220274     0.27000
C2408       C  0.66016411  0.08586075  0.23294103    -0.13500
C2409       C  0.64395569  0.06258689  0.23150727     0.05100
C2410       C  0.64821311  0.04110931  0.24972793    -0.09500
C2411       C  0.66835223  0.04342678  0.26975762     0.05900
C2412       C  0.68477388  0.06652666  0.27087599    -0.13800
Br2413     Br  0.67008163  0.13231379  0.29619841    -0.05900
Br2414     Br  0.76539247  0.13257435  0.20157565    -0.00300
Br2415     Br  0.61747733  0.05947188  0.20312022     0.00200
Br2416     Br  0.71312699  0.06893614  0.29745808    -0.04200
Br2417     Br  0.71882772  0.17861171  0.29872498     0.00300
Br2418     Br  0.72386849  0.08071820  0.20656033    -0.03500
Br2419     Br  0.65454823  0.11515103  0.20792720    -0.04400
Br2420     Br  0.67336063  0.01513722  0.29607568    -0.00400
C2421       C  0.64868530  0.94278888  0.23951771     0.01000
C2422       C  0.67292691  0.94249517  0.22450006     0.03800
C2423       C  0.69061996  0.92054316  0.22653818    -0.12200
C2424       C  0.68338911  0.89790616  0.24191735     0.23100
C2425       C  0.65822762  0.89688542  0.25484636    -0.12800
C2426       C  0.64096003  0.91938537  0.25404370     0.04500
C2427       C  0.70245982  0.87521058  0.24452778     0.27000
C2428       C  0.70167050  0.85390508  0.22581447    -0.13500
C2429       C  0.72055919  0.83293521  0.22752952     0.05100
C2430       C  0.74053875  0.83343172  0.24788344    -0.09500
C2431       C  0.74085569  0.85450875  0.26702147     0.05900
C2432       C  0.72184258  0.87540318  0.26527798    -0.13800
Br2433     Br  0.64806488  0.86474025  0.27434283    -0.05900
Br2434     Br  0.68148915  0.97124774  0.19961913    -0.00300
Br2435     Br  0.71963378  0.80445397  0.20090593     0.00200
Br2436     Br  0.72238580  0.90456948  0.29108076    -0.04200
Br2437     Br  0.60768907  0.91787836  0.27415470     0.00300
Br2438     Br  0.72529951  0.92169227  0.20895604    -0.03500
Br2439     Br  0.67500515  0.85394541  0.19743372    -0.04400
Br2440     Br  0.76645327  0.85423748  0.29637610    -0.00400
C2441       C  0.80678061  0.04290884  0.06619068     0.01000
C2442       C  0.82360712  0.06441772  0.05775440     0.03800
C2443       C  0.82671632  0.08734755  0.07429095    -0.12200
C2444       C  0.81361335  0.08862468  0.09942822     0.23100
C2445       C  0.79610029  0.06779385  0.10735351    -0.12800
C2446       C  0.79205378  0.04543508  0.09043586     0.04500
C2447       C  0.81799668  0.11177949  0.11780238     0.27000
C2448       C  0.84031915  0.11192709  0.13536126    -0.13500
C2449       C  0.84233256  0.13167268  0.15562060     0.05100
C2450       C  0.82274044  0.15218565  0.15743467    -0.09500
C2451       C  0.80120910  0.15287202  0.13882393     0.05900
C2452       C  0.79857561  0.13238428  0.11939782    -0.13800
Br2453     Br  0.77817136  0.06965141  0.14190357    -0.05900
Br2454     Br  0.84359834  0.06253512  0.02438341    -0.00300
Br2455     Br  0.87212259  0.13058159  0.18070630     0.00200
Br2456     Br  0.76781864  0.13182122  0.09554130    -0.04200
Br2457     Br  0.76500804  0.01912461  0.09990524     0.00300
Br2458     Br  0.84940144  0.11689242  0.06301503    -0.03500
Br2459     Br  0.86796564  0.08483525  0.13182642    -0.04400
Br2460     Br  0.77432042  0.18085713  0.14076252    -0.00400
C2461       C  0.81795485  0.94484548  0.06819623     0.01000
C2462       C  0.80305666  0.92085055  0.06418795     0.03800
C2463       C  0.80712194  0.89862474  0.08139625    -0.12200
C2464       C  0.82543037  0.90047062  0.10303835     0.23100
C2465       C  0.84078467  0.92402420  0.10665003    -0.12800
C2466       C  0.83775999  0.94577065  0.08873961     0.04500
C2467       C  0.82706764  0.87823093  0.12295076     0.27000
C2468       C  0.80774079  0.87669768  0.14361883    -0.13500
C2469       C  0.80767926  0.85466322  0.16138048     0.05100
C2470       C  0.82757899  0.83444142  0.15926766    -0.09500
C2471       C  0.84749118  0.83645000  0.13903262     0.05900
C2472       C  0.84700288  0.85815400  0.12067910    -0.13800
Br2473     Br  0.86503007  0.92694802  0.13697187    -0.05900
Br2474     Br  0.77596534  0.91847490  0.03634152    -0.00300
Br2475     Br  0.77938874  0.85177376  0.18780663     0.00200
Br2476     Br  0.87351629  0.86054742  0.09235290    -0.04200
Br2477     Br  0.86204733  0.97612214  0.09164603     0.00300
Br2478     Br  0.78682961  0.86577694  0.07627079    -0.03500
Br2479     Br  0.78130188  0.90499834  0.14751412    -0.04400
Br2480     Br  0.87624824  0.81043393  0.13724494    -0.00400
C2481       C  0.82600732  0.42181958  0.05117504     0.01000
C2482       C  0.84650080  0.42550074  0.07059179     0.03800
C2483       C  0.84643728  0.41009249  0.09431379    -0.12200
C2484       C  0.82683960  0.38998941  0.09796035     0.23100
C2485       C  0.80556935  0.38720257  0.07933512    -0.12800
C2486       C  0.80490072  0.40348133  0.05613686     0.04500
C2487       C  0.82982118  0.37037999  0.12015494     0.27000
C2488       C  0.84721287  0.34819225  0.11693424    -0.13500
C2489       C  0.84908295  0.32860294  0.13729406     0.05100
C2490       C  0.83298115  0.33084648  0.16069472    -0.09500
C2491       C  0.81607589  0.35357923  0.16409275     0.05900
C2492       C  0.81501485  0.37355773  0.14407121    -0.13800
Br2493     Br  0.77789360  0.36052832  0.08532947    -0.05900
Br2494     Br  0.87618896  0.44968814  0.06380292    -0.00300
Br2495     Br  0.87459941  0.29944834  0.13330964     0.00200
Br2496     Br  0.79337748  0.40546583  0.14923988    -0.04200
Br2497     Br  0.77493888  0.40100245  0.03145804     0.00300
Br2498     Br  0.87355348  0.41586126  0.12163491    -0.03500
Br2499     Br  0.86850801  0.34475676  0.08448980    -0.04400
Br2500     Br  0.79270460  0.35690054  0.19504487    -0.00400
C2501       C  0.83815788  0.41869463  0.95270922     0.01000
C2502       C  0.82361605  0.42667771  0.92946869     0.03800
C2503       C  0.82522854  0.41131999  0.90567385    -0.12200
C2504       C  0.84057682  0.38752199  0.90512061     0.23100
C2505       C  0.85635748  0.38033439  0.92760810    -0.12800
C2506       C  0.85531406  0.39596824  0.95134301     0.04500
C2507       C  0.83772236  0.36881550  0.88192570     0.27000
C2508       C  0.81645445  0.35005088  0.88187091    -0.13500
C2509       C  0.81274213  0.33276416  0.85970649     0.05100
C2510       C  0.83051725  0.33390106  0.83746789    -0.09500
C2511       C  0.85139913  0.35332297  0.83722510     0.05900
C2512       C  0.85504090  0.37061500  0.85952980    -0.13800
Br2513     Br  0.87932834  0.34902401  0.92568261    -0.05900
Br2514     Br  0.79974353  0.45743537  0.93028128    -0.00300
Br2515     Br  0.78247207  0.30827935  0.85958341     0.00200
Br2516     Br  0.88394706  0.39659246  0.85980312    -0.04200
Br2517     Br  0.87821900  0.38665514  0.98144958     0.00300
Br2518     Br  0.80601772  0.42245925  0.87367941    -0.03500
Br2519     Br  0.79240069  0.34804056  0.91243566    -0.04400
Br2520     Br  0.87581924  0.35582411  0.80703636    -0.00400
C2521       C  0.91773781  0.23633987  0.15601688     0.01000
C2522       C  0.91477127  0.21710672  0.13517214     0.03800
C2523       C  0.93224287  0.21740425  0.11292346    -0.12200
C2524       C  0.95317403  0.23645618  0.11170903     0.23100
C2525       C  0.95675361  0.25515300  0.13280759    -0.12800
C2526       C  0.93908730  0.25512268  0.15497959     0.04500
C2527       C  0.97137762  0.23681343  0.08810239     0.27000
C2528       C  0.99351704  0.21923680  0.08705932    -0.13500
C2529       C  0.01013880  0.21858754  0.06404920     0.05100
C2530       C  0.00527344  0.23651208  0.04221113    -0.09500
C2531       C  0.98339447  0.25487414  0.04411384     0.05900
C2532       C  0.96619415  0.25444535  0.06660958    -0.13800
Br2533     Br  0.98564611  0.28109722  0.13088989    -0.05900
Br2534     Br  0.88765074  0.18938493  0.13749878    -0.00300
Br2535     Br  0.03829231  0.19173328  0.06264907     0.00200
Br2536     Br  0.93513699  0.27794549  0.06813539    -0.04200
Br2537     Br  0.94362623  0.28165214  0.18315472     0.00300
Br2538     Br  0.92735746  0.19198437  0.08376389    -0.03500
Br2539     Br  0.00063087  0.19583150  0.11739819    -0.04400
Br2540     Br  0.97716987  0.28226290  0.01734785    -0.00400
C2541       C  0.91452298  0.24648004  0.84069663     0.01000
C2542       C  0.93326737  0.26773371  0.84033143     0.03800
C2543       C  0.95558113  0.26734744  0.85774040    -0.12200
C2544       C  0.95661913  0.24840654  0.87891789     0.23100
C2545       C  0.93571262  0.22922686  0.88155484    -0.12800
C2546       C  0.91553215  0.22734937  0.86168955     0.04500
C2547       C  0.97899799  0.24867193  0.89889883     0.27000
C2548       C  0.99657339  0.22637380  0.90061106    -0.13500
C2549       C  0.01263041  0.22279663  0.92377120     0.05100
C2550       C  0.01382810  0.24328934  0.94344636    -0.09500
C2551       C  0.00042402  0.26783930  0.93874429     0.05900
C2552       C  0.98137651  0.26978842  0.91786940    -0.13800
Br2553     Br  0.93430167  0.20588632  0.91271855    -0.05900
Br2554     Br  0.92562392  0.29962352  0.81966808    -0.00300
Br2555     Br  0.03112829  0.18912074  0.92935492     0.00200
Br2556     Br  0.95731747  0.30034095  0.91701021    -0.04200
Br2557     Br  0.88956519  0.19846095  0.86331304     0.00300
Br2558     Br  0.98494108  0.29205340  0.85164112    -0.03500
Br2559     Br  0.99789605  0.20048173  0.87155614    -0.04400
Br2560     Br  0.01007027  0.29939399  0.95923923    -0.00400
C2561       C  0.30222202  0.56144962  0.05189171     0.01000
C2562       C  0.28376072  0.58288468  0.05475603     0.03800
C2563       C  0.28546259  0.60033599  0.07712431    -0.12200
C2564       C  0.30412178  0.59509348  0.09792490     0.23100
C2565       C  0.32066239  0.57203435  0.09637714    -0.12800
C2566       C  0.32068968  0.55605067  0.07285675     0.04500
C2567       C  0.30760133  0.61463061  0.12051321     0.27000
C2568       C  0.33026067  0.63177065  0.12097575    -0.13500
C2569       C  0.33386640  0.65013316  0.14232339     0.05100
C2570       C  0.31421012  0.65258780  0.16269559    -0.09500
C2571       C  0.29209562  0.63461082  0.16284984     0.05900
C2572       C  0.28876629  0.61578719  0.14174867    -0.13800
Br2573     Br  0.34351371  0.56265916  0.12645342    -0.05900
Br2574     Br  0.25566325  0.58794652  0.02831584    -0.00300
Br2575     Br  0.36732479  0.66960688  0.14533900     0.00200
Br2576     Br  0.25847181  0.59139360  0.14189171    -0.04200
Br2577     Br  0.34789249  0.52869173  0.06838989     0.00300
Br2578     Br  0.26306281  0.63208389  0.07865962    -0.03500
Br2579     Br  0.35647011  0.63017030  0.09224718    -0.04400
Br2580     Br  0.26639233  0.63526323  0.19191930    -0.00400
C2581       C  0.31616624  0.56326314  0.95386672     0.01000
C2582       C  0.33820595  0.58133140  0.95312939     0.03800
C2583       C  0.34228982  0.59807634  0.93050260    -0.12200
C2584       C  0.32440100  0.59700288  0.90843643     0.23100
C2585       C  0.30309656  0.57820215  0.90860689    -0.12800
C2586       C  0.29898990  0.56134973  0.93117236     0.04500
C2587       C  0.32635203  0.61735170  0.88632544     0.27000
C2588       C  0.31024195  0.64067976  0.88743819    -0.13500
C2589       C  0.31151620  0.66007156  0.86671698     0.05100
C2590       C  0.32881390  0.65618594  0.84428579    -0.09500
C2591       C  0.34532869  0.63289413  0.84347974     0.05900
C2592       C  0.34401241  0.61358145  0.86439096    -0.13800
Br2593     Br  0.27881725  0.57653863  0.87821410    -0.05900
Br2594     Br  0.36326776  0.58298529  0.98292114    -0.00300
Br2595     Br  0.28846069  0.69134003  0.86918456     0.00200
Br2596     Br  0.36633815  0.58179366  0.86309488    -0.04200
Br2597     Br  0.26856514  0.53713966  0.93153089     0.00300
Br2598     Br  0.37195959  0.62320419  0.92997609    -0.03500
Br2599     Br  0.28593834  0.64575651  0.91746484    -0.04400
Br2600     Br  0.37100740  0.62788234  0.81463390    -0.00400
C2601       C  0.23963889  0.73717564  0.16296189     0.01000
C2602       C  0.24343628  0.72329825  0.13815036     0.03800
C2603       C  0.22328811  0.72384047  0.11815849    -0.12200
C2604       C  0.19900870  0.73766788  0.12277195     0.23100
C2605       C  0.19461874  0.75055953  0.14765701    -0.12800
C2606       C  0.21516581  0.75131942  0.16724014     0.04500
C2607       C  0.17936706  0.74071518  0.10034159     0.27000
C2608       C  0.18037197  0.76388863  0.08390847    -0.13500
C2609       C  0.16411685  0.76561317  0.06068921     0.05100
C2610       C  0.14734210  0.74386942  0.05337151    -0.09500
C2611       C  0.14576630  0.72101646  0.07026358     0.05900
C2612       C  0.16144095  0.71964678  0.09393472    -0.13800
Br2613     Br  0.16033553  0.76742119  0.15465067    -0.05900
Br2614     Br  0.27600389  0.70352175  0.13049746    -0.00300
Br2615     Br  0.16480069  0.79778706  0.03888026     0.00200
Br2616     Br  0.15937207  0.68846509  0.11708510    -0.04200
Br2617     Br  0.21044647  0.77469388  0.19817064     0.00300
Br2618     Br  0.22899766  0.70602221  0.08389419    -0.03500
Br2619     Br  0.20516953  0.79264136  0.09251747    -0.04400
Br2620     Br  0.12393517  0.69055621  0.05982759    -0.00400
C2621       C  0.15318126  0.73829918  0.95447588     0.01000
C2622       C  0.17845679  0.72481517  0.95462140     0.03800
C2623       C  0.19466390  0.72469640  0.93131009    -0.12200
C2624       C  0.18554743  0.73711279  0.90751844     0.23100
C2625       C  0.16002497  0.74922453  0.90673173    -0.12800
C2626       C  0.14423010  0.75065369  0.93023373     0.04500
C2627       C  0.20358058  0.73907317  0.88380864     0.27000
C2628       C  0.21994088  0.76204483  0.88063036    -0.13500
C2629       C  0.23805594  0.76359215  0.85892626     0.05100
C2630       C  0.23926778  0.74248618  0.83983188    -0.09500
C2631       C  0.22215095  0.71991378  0.84251632     0.05900
C2632       C  0.20461016  0.71806719  0.86471566    -0.13800
Br2633     Br  0.14701094  0.76415595  0.87317148    -0.05900
Br2634     Br  0.19129674  0.70555019  0.98603806    -0.00300
Br2635     Br  0.26098660  0.79483786  0.85533601     0.00200
Br2636     Br  0.18246500  0.68649317  0.86954176    -0.04200
Br2637     Br  0.11174683  0.77202072  0.92899655     0.00300
Br2638     Br  0.22963272  0.70759007  0.93168839    -0.03500
Br2639     Br  0.21759249  0.79128694  0.90628756    -0.04400
Br2640     Br  0.22378891  0.69068422  0.81678924    -0.00400
loop_ 
_geom_bond_atom_site_label_1 
_geom_bond_atom_site_label_2 
_geom_bond_distance 
_geom_bond_site_symmetry_2 
_ccdc_geom_bond_type 
C1            N2   1.362       .  A
C1            N6   1.359   1_556  A
C1         C2621   1.493       .  S
N2            C3   1.358   1_556  A
C3            N4   1.361       .  A
C3           C53   1.475   1_554  S
N4            C5   1.357       .  A
C5            N6   1.356       .  A
C5         C2610   1.479       .  S
C7            N8   1.362       .  A
C7           N12   1.358       .  A
C7         C2561   1.482       .  S
N8            C9   1.362       .  A
C9           N10   1.363   1_554  A
C9           C69   1.477   1_554  S
N10          C11   1.359       .  A
C11          N12   1.357   1_556  A
C11        C2581   1.489       .  S
C13          N14   1.360   1_554  A
C13          N18   1.360       .  A
C13        C2530   1.495       .  S
N14          C15   1.359       .  A
C15          N16   1.357       .  A
C15        C2550   1.479       .  S
N16          C17   1.360       .  A
C17          N18   1.359   1_556  A
C17          C65   1.470       .  S
C19          N20   1.355       .  A
C19          N24   1.359   1_556  A
C19        C2501   1.482       .  S
N20          C21   1.356   1_556  A
C21          N22   1.355       .  A
C21          C59   1.461   1_554  S
N22          C23   1.357       .  A
C23          N24   1.360       .  A
C23        C2481   1.471       .  S
C25          N26   1.355       .  A
C25          N30   1.356   1_545  A
C25        C2441   1.484       .  S
N26          C27   1.359   1_545  A
C27          N28   1.360       .  A
C27          C77   1.465   1_554  S
N28          C29   1.359       .  A
C29          N30   1.358       .  A
C29        C2461   1.484       .  S
C31          N32   1.358       .  A
C31          N36   1.356   1_545  A
C31        C2410   1.481       .  S
N32          C33   1.360   1_545  A
C33          N34   1.359       .  A
C33          C95   1.465       .  S
N34          C35   1.357       .  A
C35          N36   1.357       .  A
C35        C2421   1.485       .  S
C37          N38   1.355       .  A
C37          N42   1.358       .  A
C37        C2381   1.470       .  S
N38          C39   1.355   1_565  A
C39          N40   1.357       .  A
C39        C2361   1.473       .  S
N40          C41   1.360   1_545  A
C41          N42   1.360       .  A
C41          C87   1.468   1_556  S
C43          N44   1.357       .  A
C43          N48   1.359       .  A
C43        C2350   1.486       .  S
N44          C45   1.357       .  A
C45          N46   1.358   1_565  A
C45          C81   1.464       .  S
N46          C47   1.356       .  A
C47          N48   1.357   1_545  A
C47        C2330   1.475       .  S
C49          N50   1.349   1_554  A
C49          N54   1.353       .  A
C49        C2281   1.463       .  S
N50          C51   1.353       .  A
C51          N52   1.366       .  A
C51        C2310   1.481       .  S
N52          C53   1.368       .  A
C53          N54   1.358   1_556  A
C55          N56   1.354   1_554  A
C55          N60   1.361       .  A
C55        C2250   1.481       .  S
N56          C57   1.351       .  A
C57          N58   1.351       .  A
C57        C2261   1.456       .  S
N58          C59   1.355       .  A
C59          N60   1.360   1_556  A
C61          N62   1.359   1_556  A
C61          N66   1.355       .  A
C61        C2221   1.475       .  S
N62          C63   1.361       .  A
C63          N64   1.362       .  A
C63        C2210   1.488       .  S
N64          C65   1.361   1_554  A
C65          N66   1.355       .  A
C67          N68   1.356       .  A
C67          N72   1.359       .  A
C67        C2190   1.478       .  S
N68          C69   1.358       .  A
C69          N70   1.363   1_556  A
N70          C71   1.365       .  A
C71          N72   1.361   1_554  A
C71        C2161   1.496       .  S
C73          N74   1.355   1_545  A
C73          N78   1.353       .  A
C73        C2121   1.465       .  S
N74          C75   1.357       .  A
C75          N76   1.361       .  A
C75        C2141   1.475       .  S
N76          C77   1.360       .  A
C77          N78   1.356   1_565  A
C79          N80   1.355       .  A
C79          N84   1.353   1_545  A
C79        C2081   1.467       .  S
N80          C81   1.358   1_545  A
C81          N82   1.361       .  A
N82          C83   1.358       .  A
C83          N84   1.354       .  A
C83        C2101   1.473       .  S
C85          N86   1.358       .  A
C85          N90   1.353   1_545  A
C85        C2041   1.485       .  S
N86          C87   1.360   1_545  A
C87          N88   1.360       .  A
N88          C89   1.359       .  A
C89          N90   1.353       .  A
C89        C2061   1.478       .  S
C91          N92   1.359       .  A
C91          N96   1.357       .  A
C91        C2021   1.480       .  S
N92          C93   1.361   1_565  A
C93          N94   1.358       .  A
C93        C2001   1.481       .  S
N94          C95   1.357   1_545  A
C95          N96   1.358       .  A
C97          N98   1.366       .  A
C97         N102   1.356       .  A
C97        C1990   1.506       .  S
N98          C99   1.366       .  A
C99         N100   1.362       .  A
C99         C111   1.480   1_545  S
N100        C101   1.357       .  A
C101        N102   1.352       .  A
C101       C1970   1.482       .  S
C103        N104   1.361       .  A
C103        N108   1.362       .  A
C103       C1950   1.482       .  S
N104        C105   1.358       .  A
C105        N106   1.355       .  A
C105       C1921   1.475       .  S
N106        C107   1.358       .  A
C107        N108   1.359       .  A
C107        C141   1.470       .  S
C109        N110   1.357       .  A
C109        N114   1.352       .  A
C109       C1881   1.476       .  S
N110        C111   1.361       .  A
C111        N112   1.365       .  A
N112        C113   1.366       .  A
C113        N114   1.353       .  A
C113       C1901   1.485       .  S
C115        N116   1.361       .  A
C115        N120   1.355       .  A
C115       C1870   1.490       .  S
N116        C117   1.361       .  A
C117        N118   1.360       .  A
C117        C129   1.470       .  S
N118        C119   1.357       .  A
C119        N120   1.353       .  A
C119       C1850   1.485       .  S
C121        N122   1.360       .  A
C121        N126   1.352       .  A
C121       C1830   1.468       .  S
N122        C123   1.361       .  A
C123        N124   1.362       .  A
C123       C1810   1.497       .  S
N124        C125   1.361       .  A
C125        N126   1.353       .  A
C125        C137   1.465   1_565  S
C127        N128   1.358       .  A
C127        N132   1.354       .  A
C127       C1790   1.497       .  S
N128        C129   1.360       .  A
C129        N130   1.361       .  A
N130        C131   1.360       .  A
C131        N132   1.356       .  A
C131       C1770   1.492       .  S
C133        N134   1.354       .  A
C133        N138   1.355       .  A
C133       C1750   1.463       .  S
N134        C135   1.354       .  A
C135        N136   1.360       .  A
C135       C1721   1.479       .  S
N136        C137   1.362       .  A
C137        N138   1.355       .  A
C139        N140   1.354       .  A
C139        N144   1.355       .  A
C139       C1690   1.479       .  S
N140        C141   1.358       .  A
C141        N142   1.362       .  A
N142        C143   1.363       .  A
C143        N144   1.356       .  A
C143       C1701   1.487       .  S
C145        N146   1.359       .  A
C145        N150   1.356       .  A
C145       C1641   1.469       .  S
N146        C147   1.360       .  A
C147        N148   1.356       .  A
C147        C291   1.465       .  S
N148        C149   1.354       .  A
C149        N150   1.356       .  A
C149       C1670   1.473       .  S
C151        N152   1.358       .  A
C151        N156   1.363       .  A
C151       C1621   1.504       .  S
N152        C153   1.358       .  A
C153        N154   1.356       .  A
C153        C363   1.468       .  S
N154        C155   1.357       .  A
C155        N156   1.364       .  A
C155       C1610   1.478       .  S
O157       Zr193   2.417       .  S
O157        C168   1.282       .  A
O158       Zr192   2.460       .  S
O158        C169   1.295       .  A
O159       Zr165   2.406       .  S
O159        C170   1.281       .  A
O160       Zr165   2.447       .  S
O160        C171   1.292       .  A
O161       Zr195   2.421       .  S
O161        C171   1.285       .  A
O162       Zr194   2.453       .  S
O162        C170   1.291       .  A
O163       Zr165   2.423       .  S
O163        C169   1.287       .  A
O164       Zr165   2.443       .  S
O164        C168   1.287       .  A
Zr165       O166   2.315       .  S
Zr165       O167   2.332       .  S
Zr165       O175   2.328       .  S
Zr165       O173   2.360       .  S
O166       Zr192   2.364       .  S
O166       Zr195   2.355       .  S
O167       Zr193   2.328       .  S
O167       Zr194   2.334       .  S
C168       C2601   1.493       .  S
C169       C1781   1.477       .  S
C170       C1601   1.479       .  S
C171       C1821   1.499       .  S
H172        O173   0.966       .  S
O173       Zr192   2.370       .  S
O173       Zr194   2.349       .  S
H174        O175   0.967       .  S
O175       Zr193   2.348       .  S
O175       Zr195   2.379       .  S
O176       Zr192   2.453       .  S
O176        C199   1.296       .  A
O177       Zr193   2.423       .  S
O177        C200   1.285       .  A
O178       Zr194   2.419       .  S
O178        C201   1.284       .  A
O179       Zr195   2.449       .  S
O179        C202   1.293       .  A
O180       Zr195   2.441       .  S
O180        C203   1.292       .  A
O181       Zr194   2.415       .  S
O181        C204   1.281       .  A
O182       Zr196   2.437       .  S
O182        C205   1.291       .  A
O183       Zr196   2.463       .  S
O183        C206   1.297       .  A
O184       Zr194   2.455       .  S
O184        C205   1.294       .  A
O185       Zr195   2.427       .  S
O185        C206   1.290       .  A
O186       Zr192   2.437       .  S
O186        C201   1.290       .  A
O187       Zr193   2.455       .  S
O187        C204   1.291       .  A
O188       Zr193   2.429       .  S
O188        C203   1.288       .  A
O189       Zr192   2.419       .  S
O189        C202   1.286       .  A
O190       Zr196   2.445       .  S
O190        C199   1.294       .  A
O191       Zr196   2.423       .  S
O191        C200   1.287       .  A
Zr192       O198   2.356       .  S
Zr192       O210   2.341       .  S
Zr193       O197   2.324       .  S
Zr193       O208   2.342       .  S
Zr194       O198   2.313       .  S
Zr194       O208   2.350       .  S
Zr195       O197   2.366       .  S
Zr195       O210   2.336       .  S
Zr196       O197   2.360       .  S
Zr196       O198   2.361       .  S
Zr196       O210   2.337       .  S
Zr196       O208   2.383       .  S
C199       C1561   1.486       .  S
C200       C1550   1.492       .  S
C201       C1650   1.496       .  S
C202       C1581   1.497       .  S
C203       C2070   1.470       .  S
C204       C2570   1.486       .  S
C205       C1521   1.486       .  S
C206       C2030   1.495       .  S
H207        O208   0.966       .  S
H209        O210   0.965       .  S
C211        N212   1.363       .  A
C211        N216   1.353       .  A
C211       C1501   1.495       .  S
N212        C213   1.362       .  A
C213        N214   1.359       .  A
C213       C1481   1.483       .  S
N214        C215   1.359       .  A
C215        N216   1.353       .  A
C215        C603   1.463       .  S
C217        N218   1.364       .  A
C217        N222   1.360       .  A
C217       C1461   1.492       .  S
N218        C219   1.362       .  A
C219        N220   1.355       .  A
C219        C285   1.468   1_545  S
N220        C221   1.351       .  A
C221        N222   1.358       .  A
C221       C1450   1.467       .  S
O223       Zr259   2.432       .  S
O223        C234   1.291       .  A
O224       Zr258   2.448       .  S
O224        C235   1.293       .  A
O225       Zr231   2.417       .  S
O225        C236   1.287       .  A
O226       Zr231   2.405       .  S
O226        C237   1.286       .  A
O227       Zr261   2.456       .  S
O227        C237   1.295       .  A
O228       Zr260   2.448       .  S
O228        C236   1.294       .  A
O229       Zr231   2.443       .  S
O229        C235   1.292       .  A
O230       Zr231   2.433       .  S
O230        C234   1.290       .  A
Zr231       O232   2.336       .  S
Zr231       O233   2.336       .  S
Zr231       O241   2.339       .  S
Zr231       O239   2.335       .  S
O232       Zr258   2.342       .  S
O232       Zr261   2.341       .  S
O233       Zr259   2.339       .  S
O233       Zr260   2.337       .  S
C234       C2370   1.473       .  S
C235       C2181   1.494       .  S
C236       C1390   1.481       .  S
C237       C2230   1.478       .  S
H238        O239   0.966       .  S
O239       Zr258   2.337       .  S
O239       Zr260   2.344       .  S
H240        O241   0.966       .  S
O241       Zr259   2.338       .  S
O241       Zr261   2.336       .  S
O242       Zr258   2.439       .  S
O242        C265   1.292       .  A
O243       Zr259   2.435       .  S
O243        C266   1.291       .  A
O244       Zr260   2.428       .  S
O244        C267   1.290       .  A
O245       Zr261   2.437       .  S
O245        C268   1.292       .  A
O246       Zr261   2.435       .  S
O246        C269   1.292       .  A
O247       Zr260   2.424       .  S
O247        C270   1.289       .  A
O248       Zr262   2.434       .  S
O248        C271   1.291       .  A
O249       Zr262   2.440       .  S
O249        C272   1.292       .  A
O250       Zr260   2.461       .  S
O250        C271   1.296       .  A
O251       Zr261   2.431       .  S
O251        C272   1.291       .  A
O252       Zr258   2.431       .  S
O252        C267   1.291       .  A
O253       Zr259   2.439       .  S
O253        C270   1.293       .  A
O254       Zr259   2.449       .  S
O254        C269   1.294       .  A
O255       Zr258   2.433       .  S
O255        C268   1.292       .  A
O256       Zr262   2.438       .  S
O256        C265   1.292       .  A
O257       Zr262   2.443       .  S
O257        C266   1.293       .  A
Zr258       O264   2.337       .  S
Zr258       O276   2.344       .  S
Zr259       O263   2.337       .  S
Zr259       O274   2.342       .  S
Zr260       O264   2.334       .  S
Zr260       O274   2.343       .  S
Zr261       O263   2.340       .  S
Zr261       O276   2.346       .  S
Zr262       O263   2.335       .  S
Zr262       O264   2.336       .  S
Zr262       O276   2.339       .  S
Zr262       O274   2.340       .  S
C265       C1401   1.484       .  S
C266       C1441   1.489       .  S
C267       C1361   1.480       .  S
C268       C1421   1.477       .  S
C269       C1961   1.482       .  S
C270       C2321   1.478       .  S
C271       C1490   1.493       .  S
C272       C1930   1.487       .  S
H273        O274   0.966       .  S
H275        O276   0.966       .  S
C277        N278   1.361       .  A
C277        N282   1.355       .  A
C277       C1570   1.484       .  S
N278        C279   1.361       .  A
C279        N280   1.355       .  A
C279       C1350   1.472       .  S
N280        C281   1.357       .  A
C281        N282   1.354       .  A
C281        C435   1.459       .  S
C283        N284   1.356       .  A
C283        N288   1.354       .  A
C283       C1321   1.472       .  S
N284        C285   1.360       .  A
C285        N286   1.359       .  A
N286        C287   1.359       .  A
C287        N288   1.356       .  A
C287       C1590   1.465       .  S
C289        N290   1.355       .  A
C289        N294   1.357       .  A
C289       C1410   1.481       .  S
N290        C291   1.358       .  A
C291        N292   1.358       .  A
N292        C293   1.359       .  A
C293        N294   1.358       .  A
C293       C1310   1.480       .  S
C295        N296   1.353       .  A
C295        N300   1.358       .  A
C295       C1430   1.480       .  S
N296        C297   1.354       .  A
C297        N298   1.356       .  A
C297       C1290   1.471       .  S
N298        C299   1.358       .  A
C299        N300   1.360       .  A
C299        C465   1.464       .  S
O301       Zr337   2.425       .  S
O301        C312   1.290       .  A
O302       Zr336   2.430       .  S
O302        C313   1.290       .  A
O303       Zr309   2.399       .  S
O303        C314   1.283       .  A
O304       Zr309   2.435       .  S
O304        C315   1.290       .  A
O305       Zr339   2.434       .  S
O305        C315   1.291       .  A
O306       Zr338   2.474       .  S
O306        C314   1.300       .  A
O307       Zr309   2.460       .  S
O307        C313   1.296       .  A
O308       Zr309   2.445       .  S
O308        C312   1.293       .  A
Zr309       O310   2.328       .  S
Zr309       O311   2.342       .  S
Zr309       O319   2.335       .  S
Zr309       O317   2.351       .  S
O310       Zr336   2.342       .  S
O310       Zr339   2.335       .  S
O311       Zr337   2.332       .  S
O311       Zr338   2.335       .  S
C312       C2630   1.474       .  S
C313       C1841   1.476       .  S
C314       C1890   1.488       .  S
C315       C1281   1.488       .  S
H316        O317   0.966       .  S
O317       Zr336   2.350       .  S
O317       Zr338   2.343       .  S
H318        O319   0.966       .  S
O319       Zr337   2.347       .  S
O319       Zr339   2.336       .  S
O320       Zr336   2.453       .  S
O320        C343   1.294       .  A
O321       Zr337   2.421       .  S
O321        C344   1.288       .  A
O322       Zr338   2.433       .  S
O322        C345   1.291       .  A
O323       Zr339   2.444       .  S
O323        C346   1.293       .  A
O324       Zr339   2.455       .  S
O324        C347   1.295       .  A
O325       Zr338   2.430       .  S
O325        C348   1.287       .  A
O326       Zr340   2.430       .  S
O326        C349   1.290       .  A
O327       Zr340   2.433       .  S
O327        C350   1.291       .  A
O328       Zr338   2.460       .  S
O328        C349   1.296       .  A
O329       Zr339   2.424       .  S
O329        C350   1.289       .  A
O330       Zr336   2.439       .  S
O330        C345   1.292       .  A
O331       Zr337   2.454       .  S
O331        C348   1.293       .  A
O332       Zr337   2.443       .  S
O332        C347   1.293       .  A
O333       Zr336   2.426       .  S
O333        C346   1.290       .  A
O334       Zr340   2.424       .  S
O334        C343   1.288       .  A
O335       Zr340   2.424       .  S
O335        C344   1.289       .  A
Zr336       O342   2.326       .  S
Zr336       O354   2.340       .  S
Zr337       O341   2.340       .  S
Zr337       O352   2.333       .  S
Zr338       O342   2.341       .  S
Zr338       O352   2.340       .  S
Zr339       O341   2.341       .  S
Zr339       O354   2.347       .  S
Zr340       O341   2.337       .  S
Zr340       O342   2.333       .  S
Zr340       O354   2.336       .  S
Zr340       O352   2.334       .  S
C343       C1341   1.492       .  S
C344       C1261   1.472       .  S
C345       C1330   1.489       .  S
C346       C1301   1.479       .  S
C347       C2590   1.495       .  S
C348       C2390   1.511       .  S
C349       C2341   1.481       .  S
C350       C1250   1.470       .  S
H351        O352   0.965       .  S
H353        O354   0.966       .  S
C355        N356   1.355       .  A
C355        N360   1.356       .  A
C355       C1201   1.465       .  S
N356        C357   1.358       .  A
C357        N358   1.357       .  A
C357        C459   1.463       .  S
N358        C359   1.357       .  A
C359        N360   1.356       .  A
C359       C1221   1.482       .  S
C361        N362   1.361       .  A
C361        N366   1.359       .  A
C361       C1170   1.487       .  S
N362        C363   1.361       .  A
C363        N364   1.358       .  A
N364        C365   1.355       .  A
C365        N366   1.358       .  A
C365       C1181   1.472       .  S
C367        N368   1.354       .  A
C367        N372   1.356       .  A
C367       C1150   1.470       .  S
N368        C369   1.357       .  A
C369        N370   1.361       .  A
C369       C1530   1.490       .  S
N370        C371   1.362       .  A
C371        N372   1.359       .  A
C371        C525   1.470       .  S
C373        N374   1.357       .  A
C373        N378   1.356       .  A
C373       C1121   1.474       .  S
N374        C375   1.354       .  A
C375        N376   1.352       .  A
C375       C1541   1.463       .  S
N376        C377   1.356       .  A
C377        N378   1.354       .  A
C377        C455   1.455   1_554  S
O379       Zr415   2.427       .  S
O379        C390   1.290       .  A
O380       Zr414   2.441       .  S
O380        C391   1.292       .  A
O381       Zr387   2.399       .  S
O381        C392   1.282       .  A
O382       Zr387   2.428       .  S
O382        C393   1.289       .  A
O383       Zr417   2.426       .  S
O383        C393   1.289       .  A
O384       Zr416   2.462       .  S
O384        C392   1.296       .  A
O385       Zr387   2.434       .  S
O385        C391   1.292       .  A
O386       Zr387   2.458       .  S
O386        C390   1.295       .  A
Zr387       O388   2.338       .  S
Zr387       O389   2.332       .  S
Zr387       O397   2.325       .  S
Zr387       O395   2.350       .  S
O388       Zr414   2.339       .  S
O388       Zr417   2.321       .  S
O389       Zr415   2.330       .  S
O389       Zr416   2.338       .  S
C390       C2470   1.481       .  S
C391       C2241   1.468       .  S
C392       C2290   1.491       .  S
C393       C1130   1.476       .  S
H394        O395   0.966       .  S
O395       Zr414   2.349       .  S
O395       Zr416   2.340       .  S
H396        O397   0.966       .  S
O397       Zr415   2.352       .  S
O397       Zr417   2.343       .  S
O398       Zr414   2.442       .  S
O398        C421   1.291       .  A
O399       Zr415   2.429       .  S
O399        C422   1.290       .  A
O400       Zr416   2.456       .  S
O400        C423   1.295       .  A
O401       Zr417   2.451       .  S
O401        C424   1.292       .  A
O402       Zr417   2.421       .  S
O402        C425   1.289       .  A
O403       Zr416   2.434       .  S
O403        C426   1.290       .  A
O404       Zr418   2.423       .  S
O404        C427   1.289       .  A
O405       Zr418   2.464       .  S
O405        C428   1.298       .  A
O406       Zr416   2.468       .  S
O406        C427   1.298       .  A
O407       Zr417   2.410       .  S
O407        C428   1.286       .  A
O408       Zr414   2.424       .  S
O408        C423   1.288       .  A
O409       Zr415   2.472       .  S
O409        C426   1.298       .  A
O410       Zr415   2.447       .  S
O410        C425   1.294       .  A
O411       Zr414   2.432       .  S
O411        C424   1.288       .  A
O412       Zr418   2.430       .  S
O412        C421   1.287       .  A
O413       Zr418   2.443       .  S
O413        C422   1.293       .  A
Zr414       O420   2.331       .  S
Zr414       O432   2.338       .  S
Zr415       O419   2.343       .  S
Zr415       O430   2.339       .  S
Zr416       O420   2.334       .  S
Zr416       O430   2.354       .  S
Zr417       O419   2.346       .  S
Zr417       O432   2.338       .  S
Zr418       O419   2.328       .  S
Zr418       O420   2.342       .  S
Zr418       O432   2.341       .  S
Zr418       O430   2.348       .  S
C421       C1210   1.504       .  S
C422       C1110   1.481       .  S
C423       C1161   1.495       .  S
C424       C1141   1.509       .  S
C425       C2430   1.473       .  S
C426       C1801   1.505       .  S
C427       C1761   1.474       .  S
C428       C1081   1.479       .  S
H429        O430   0.966       .  S
H431        O432   0.966       .  S
C433        N434   1.354       .  A
C433        N438   1.356       .  A
C433       C1061   1.477       .  S
N434        C435   1.354       .  A
C435        N436   1.358       .  A
N436        C437   1.357       .  A
C437        N438   1.358       .  A
C437       C1090   1.481       .  S
C439        N440   1.358       .  A
C439        N444   1.356       .  A
C439       C1050   1.477       .  S
N440        C441   1.357       .  A
C441        N442   1.356       .  A
C441       C1101   1.475       .  S
N442        C443   1.358       .  A
C443        N444   1.358       .  A
C443        C609   1.462   1_565  S
C445        N446   1.353       .  A
C445        N450   1.357       .  A
C445       C1030   1.469       .  S
N446        C447   1.355       .  A
C447        N448   1.357       .  A
C447        C593   1.457       .  S
N448        C449   1.356       .  A
C449        N450   1.360       .  A
C449       C1241   1.480       .  S
C451        N452   1.354       .  A
C451        N456   1.350       .  A
C451       C1270   1.462       .  S
N452        C453   1.356       .  A
C453        N454   1.358       .  A
C453       C1010   1.469       .  S
N454        C455   1.359       .  A
C455        N456   1.353       .  A
C457        N458   1.356       .  A
C457        N462   1.357       .  A
C457        C981   1.476       .  S
N458        C459   1.357       .  A
C459        N460   1.358       .  A
N460        C461   1.357       .  A
C461        N462   1.357       .  A
C461        C961   1.475       .  S
C463        N464   1.358       .  A
C463        N468   1.358       .  A
C463        C941   1.478       .  S
N464        C465   1.360       .  A
C465        N466   1.356       .  A
N466        C467   1.355       .  A
C467        N468   1.359       .  A
C467        C930   1.474       .  S
O469       Zr505   2.430       .  S
O469        C480   1.290       .  A
O470       Zr504   2.436       .  S
O470        C481   1.291       .  A
O471       Zr477   2.442       .  S
O471        C482   1.290       .  A
O472       Zr477   2.433       .  S
O472        C483   1.292       .  A
O473       Zr507   2.429       .  S
O473        C483   1.290       .  A
O474       Zr506   2.453       .  S
O474        C482   1.294       .  A
O475       Zr477   2.428       .  S
O475        C481   1.290       .  A
O476       Zr477   2.441       .  S
O476        C480   1.293       .  A
Zr477       O478   2.341       .  S
Zr477       O479   2.330       .  S
Zr477       O487   2.338       .  S
Zr477       O485   2.341       .  S
O478       Zr504   2.339       .  S
O478       Zr507   2.333       .  S
O479       Zr505   2.338       .  S
O479       Zr506   2.329       .  S
C480       C2301   1.476       .  S
C481       C1861   1.463       .  S
C482        C950   1.509       .  S
C483       C1910   1.477       .  S
H484        O485   0.966       .  S
O485       Zr504   2.346       .  S
O485       Zr506   2.338       .  S
H486        O487   0.966       .  S
O487       Zr505   2.336       .  S
O487       Zr507   2.342       .  S
O488       Zr504   2.440       .  S
O488        C511   1.292       .  A
O489       Zr505   2.430       .  S
O489        C512   1.290       .  A
O490       Zr506   2.431       .  S
O490        C513   1.291       .  A
O491       Zr507   2.442       .  S
O491        C514   1.292       .  A
O492       Zr507   2.436       .  S
O492        C515   1.292       .  A
O493       Zr506   2.435       .  S
O493        C516   1.290       .  A
O494       Zr508   2.430       .  S
O494        C517   1.290       .  A
O495       Zr508   2.449       .  S
O495        C518   1.294       .  A
O496       Zr506   2.435       .  S
O496        C517   1.291       .  A
O497       Zr507   2.432       .  S
O497        C518   1.291       .  A
O498       Zr504   2.444       .  S
O498        C513   1.293       .  A
O499       Zr505   2.424       .  S
O499        C516   1.287       .  A
O500       Zr505   2.434       .  S
O500        C515   1.291       .  A
O501       Zr504   2.436       .  S
O501        C514   1.291       .  A
O502       Zr508   2.428       .  S
O502        C511   1.290       .  A
O503       Zr508   2.431       .  S
O503        C512   1.290       .  A
Zr504       O510   2.331       .  S
Zr504       O522   2.341       .  S
Zr505       O509   2.332       .  S
Zr505       O520   2.335       .  S
Zr506       O510   2.342       .  S
Zr506       O520   2.350       .  S
Zr507       O509   2.335       .  S
Zr507       O522   2.342       .  S
Zr508       O509   2.334       .  S
Zr508       O510   2.338       .  S
Zr508       O522   2.336       .  S
Zr508       O520   2.343       .  S
C511       C1070   1.473       .  S
C512       C1001   1.475       .  S
C513        C990   1.479       .  S
C514       C1041   1.495       .  S
C515       C2150   1.481       .  S
C516       C2270   1.493       .  S
C517       C1021   1.481       .  S
C518       C2110   1.487       .  S
H519        O520   0.966       .  S
H521        O522   0.966       .  S
C523        N524   1.358       .  A
C523        N528   1.358       .  A
C523        C881   1.476       .  S
N524        C525   1.358       .  A
C525        N526   1.359       .  A
N526        C527   1.359       .  A
C527        N528   1.359       .  A
C527        C901   1.485       .  S
C529        N530   1.361       .  A
C529        N534   1.359       .  A
C529        C870   1.486       .  S
N530        C531   1.360       .  A
C531        N532   1.359       .  A
C531        C597   1.474   1_554  S
N532        C533   1.359       .  A
C533        N534   1.358       .  A
C533        C841   1.489       .  S
O535       Zr571   2.431       .  S
O535        C546   1.291       .  A
O536       Zr570   2.452       .  S
O536        C547   1.295       .  A
O537       Zr543   2.437       .  S
O537        C548   1.292       .  A
O538       Zr543   2.430       .  S
O538        C549   1.291       .  A
O539       Zr573   2.433       .  S
O539        C549   1.290       .  A
O540       Zr572   2.430       .  S
O540        C548   1.291       .  A
O541       Zr543   2.431       .  S
O541        C547   1.291       .  A
O542       Zr543   2.439       .  S
O542        C546   1.292       .  A
Zr543       O544   2.340       .  S
Zr543       O545   2.336       .  S
Zr543       O553   2.339       .  S
Zr543       O551   2.341       .  S
O544       Zr570   2.343       .  S
O544       Zr573   2.339       .  S
O545       Zr571   2.338       .  S
O545       Zr572   2.335       .  S
C546       C2521   1.477       .  S
C547       C1710   1.485       .  S
C548       C1190   1.478       .  S
C549       C1741   1.482       .  S
H550        O551   0.966       .  S
O551       Zr570   2.341       .  S
O551       Zr572   2.335       .  S
H552        O553   0.966       .  S
O553       Zr571   2.338       .  S
O553       Zr573   2.339       .  S
O554       Zr570   2.455       .  S
O554        C577   1.295       .  A
O555       Zr571   2.433       .  S
O555        C578   1.291       .  A
O556       Zr572   2.427       .  S
O556        C579   1.290       .  A
O557       Zr573   2.443       .  S
O557        C580   1.293       .  A
O558       Zr573   2.439       .  S
O558        C581   1.292       .  A
O559       Zr572   2.426       .  S
O559        C582   1.289       .  A
O560       Zr574   2.447       .  S
O560        C583   1.294       .  A
O561       Zr574   2.459       .  S
O561        C584   1.296       .  A
O562       Zr572   2.431       .  S
O562        C583   1.290       .  A
O563       Zr573   2.429       .  S
O563        C584   1.290       .  A
O564       Zr570   2.438       .  S
O564        C579   1.292       .  A
O565       Zr571   2.433       .  S
O565        C582   1.291       .  A
O566       Zr571   2.427       .  S
O566        C581   1.290       .  A
O567       Zr570   2.424       .  S
O567        C580   1.290       .  A
O568       Zr574   2.425       .  S
O568        C577   1.290       .  A
O569       Zr574   2.435       .  S
O569        C578   1.292       .  A
Zr570       O576   2.337       .  S
Zr570       O588   2.341       .  S
Zr571       O575   2.342       .  S
Zr571       O586   2.333       .  S
Zr572       O576   2.339       .  S
Zr572       O586   2.337       .  S
Zr573       O575   2.341       .  S
Zr573       O588   2.339       .  S
Zr574       O575   2.337       .  S
Zr574       O576   2.342       .  S
Zr574       O588   2.340       .  S
Zr574       O586   2.339       .  S
C577        C801   1.480       .  S
C578        C861   1.476       .  S
C579       C1230   1.475       .  S
C580        C830   1.477       .  S
C581       C2450   1.473       .  S
C582       C2490   1.476       .  S
C583        C910   1.482       .  S
C584       C2401   1.484       .  S
H585        O586   0.966       .  S
H587        O588   0.966       .  S
C589        N590   1.360       .  A
C589        N594   1.353       .  A
C589       C1370   1.470       .  S
N590        C591   1.360       .  A
C591        N592   1.356       .  A
C591        C790   1.480       .  S
N592        C593   1.357       .  A
C593        N594   1.354       .  A
C595        N596   1.357       .  A
C595        N600   1.359       .  A
C595       C1381   1.479       .  S
N596        C597   1.359       .  A
C597        N598   1.362       .  A
N598        C599   1.363       .  A
C599        N600   1.361       .  A
C599        C761   1.499       .  S
C601        N602   1.356       .  A
C601        N606   1.356       .  A
C601        C741   1.474       .  S
N602        C603   1.355       .  A
C603        N604   1.360       .  A
N604        C605   1.357       .  A
C605        N606   1.355       .  A
C605        C810   1.484       .  S
C607        N608   1.357       .  A
C607        N612   1.353       .  A
C607        C821   1.469       .  S
N608        C609   1.358       .  A
C609        N610   1.357       .  A
N610        C611   1.355       .  A
C611        N612   1.353       .  A
C611        C730   1.463       .  S
O613       Zr649   2.428       .  S
O613        C624   1.290       .  A
O614       Zr648   2.423       .  S
O614        C625   1.288       .  A
O615       Zr621   2.425       .  S
O615        C626   1.289       .  A
O616       Zr621   2.419       .  S
O616        C627   1.286       .  A
O617       Zr651   2.455       .  S
O617        C627   1.296       .  A
O618       Zr650   2.458       .  S
O618        C626   1.295       .  A
O619       Zr621   2.462       .  S
O619        C625   1.297       .  A
O620       Zr621   2.455       .  S
O620        C624   1.296       .  A
Zr621       O622   2.337       .  S
Zr621       O623   2.339       .  S
Zr621       O631   2.345       .  S
Zr621       O629   2.330       .  S
O622       Zr648   2.332       .  S
O622       Zr651   2.339       .  S
O623       Zr649   2.347       .  S
O623       Zr650   2.334       .  S
C624       C2541   1.477       .  S
C625       C1941   1.493       .  S
C626       C1981   1.473       .  S
C627        C921   1.496       .  S
H628        O629   0.965       .  S
O629       Zr648   2.333       .  S
O629       Zr650   2.328       .  S
H630        O631   0.966       .  S
O631       Zr649   2.345       .  S
O631       Zr651   2.335       .  S
O632       Zr648   2.419       .  S
O632        C655   1.288       .  A
O633       Zr649   2.465       .  S
O633        C656   1.297       .  A
O634       Zr650   2.439       .  S
O634        C657   1.291       .  A
O635       Zr651   2.440       .  S
O635        C658   1.293       .  A
O636       Zr651   2.448       .  S
O636        C659   1.294       .  A
O637       Zr650   2.428       .  S
O637        C660   1.289       .  A
O638       Zr652   2.454       .  S
O638        C661   1.294       .  A
O639       Zr652   2.431       .  S
O639        C662   1.291       .  A
O640       Zr650   2.419       .  S
O640        C661   1.289       .  A
O641       Zr651   2.451       .  S
O641        C662   1.295       .  A
O642       Zr648   2.422       .  S
O642        C657   1.288       .  A
O643       Zr649   2.423       .  S
O643        C660   1.287       .  A
O644       Zr649   2.428       .  S
O644        C659   1.290       .  A
O645       Zr648   2.425       .  S
O645        C658   1.289       .  A
O646       Zr652   2.432       .  S
O646        C655   1.290       .  A
O647       Zr652   2.433       .  S
O647        C656   1.290       .  A
Zr648       O654   2.337       .  S
Zr648       O666   2.336       .  S
Zr649       O653   2.334       .  S
Zr649       O664   2.335       .  S
Zr650       O654   2.342       .  S
Zr650       O664   2.341       .  S
Zr651       O653   2.347       .  S
Zr651       O666   2.344       .  S
Zr652       O653   2.346       .  S
Zr652       O654   2.337       .  S
Zr652       O666   2.345       .  S
Zr652       O664   2.337       .  S
C655        C750   1.465       .  S
C656        C770   1.483       .  S
C657        C721   1.486       .  S
C658        C970   1.478       .  S
C659       C2510   1.482       .  S
C660       C2130   1.490       .  S
C661       C2090   1.485       .  S
C662        C781   1.484       .  S
H663        O664   0.966       .  S
H665        O666   0.966       .  S
O667       Zr703   2.439       .  S
O667        C678   1.292       .  A
O668       Zr702   2.437       .  S
O668        C679   1.292       .  A
O669       Zr675   2.436       .  S
O669        C680   1.292       .  A
O670       Zr675   2.448       .  S
O670        C681   1.294       .  A
O671       Zr705   2.441       .  S
O671        C681   1.293       .  A
O672       Zr704   2.437       .  S
O672        C680   1.292       .  A
O673       Zr675   2.438       .  S
O673        C679   1.292       .  A
O674       Zr675   2.451       .  S
O674        C678   1.294       .  A
Zr675       O676   2.340       .  S
Zr675       O677   2.340       .  S
Zr675       O685   2.342       .  S
Zr675       O683   2.353       .  S
O676       Zr702   2.348       .  S
O676       Zr705   2.348       .  S
O677       Zr703   2.338       .  S
O677       Zr704   2.341       .  S
C678       C2201   1.489       .  S
C679       C1681   1.480       .  S
C680       C1730   1.475       .  S
C681       C1630   1.483       .  S
H682        O683   0.966       .  S
O683       Zr702   2.340       .  S
O683       Zr704   2.342       .  S
H684        O685   0.966       .  S
O685       Zr703   2.342       .  S
O685       Zr705   2.344       .  S
O686       Zr702   2.438       .  S
O686        C709   1.292       .  A
O687       Zr703   2.446       .  S
O687        C710   1.293       .  A
O688       Zr704   2.445       .  S
O688        C711   1.292       .  A
O689       Zr705   2.438       .  S
O689        C712   1.292       .  A
O690       Zr705   2.460       .  S
O690        C713   1.296       .  A
O691       Zr704   2.429       .  S
O691        C714   1.291       .  A
O692       Zr706   2.443       .  S
O692        C715   1.293       .  A
O693       Zr706   2.430       .  S
O693        C716   1.291       .  A
O694       Zr704   2.438       .  S
O694        C715   1.292       .  A
O695       Zr705   2.459       .  S
O695        C716   1.295       .  A
O696       Zr702   2.468       .  S
O696        C711   1.298       .  A
O697       Zr703   2.433       .  S
O697        C714   1.291       .  A
O698       Zr703   2.428       .  S
O698        C713   1.290       .  A
O699       Zr702   2.434       .  S
O699        C712   1.292       .  A
O700       Zr706   2.437       .  S
O700        C709   1.291       .  A
O701       Zr706   2.426       .  S
O701        C710   1.290       .  A
Zr702       O708   2.333       .  S
Zr702       O720   2.349       .  S
Zr703       O707   2.339       .  S
Zr703       O718   2.339       .  S
Zr704       O708   2.335       .  S
Zr704       O718   2.343       .  S
Zr705       O707   2.339       .  S
Zr705       O720   2.350       .  S
Zr706       O707   2.340       .  S
Zr706       O708   2.337       .  S
Zr706       O720   2.338       .  S
Zr706       O718   2.338       .  S
C709       C1510   1.483       .  S
C710        C850   1.477       .  S
C711       C1470   1.501       .  S
C712       C1661   1.479       .  S
C713       C2170   1.487       .  S
C714       C2050   1.475       .  S
C715       C2010   1.487       .  S
C716        C890   1.490       .  S
H717        O718   0.966       .  S
H719        O720   0.966       .  S
C721        C722   1.421       .  A
C721        C726   1.420       .  A
C722        C723   1.406       .  A
C722       Br734   1.933       .  S
C723        C724   1.404       .  A
C723       Br738   1.933       .  S
C724        C727   1.473       .  S
C724        C725   1.404       .  A
C725        C726   1.402       .  A
C725       Br733   1.935       .  S
C726       Br737   1.936       .  S
C727        C728   1.408       .  A
C727        C732   1.407       .  A
C728        C729   1.403       .  A
C728       Br739   1.930       .  S
C729        C730   1.409       .  A
C729       Br735   1.932       .  S
C730        C731   1.409       .  A
C731        C732   1.402       .  A
C731       Br740   1.930       .  S
C732       Br736   1.932       .  S
C741        C742   1.415       .  A
C741        C746   1.416       .  A
C742        C743   1.403       .  A
C742       Br754   1.933       .  S
C743        C744   1.405       .  A
C743       Br758   1.932       .  S
C744        C747   1.471       .  S
C744        C745   1.405       .  A
C745        C746   1.403       .  A
C745       Br753   1.933       .  S
C746       Br757   1.934       .  S
C747        C748   1.407       .  A
C747        C752   1.407       .  A
C748        C749   1.401       .  A
C748       Br759   1.933       .  S
C749        C750   1.410       .  A
C749       Br755   1.930       .  S
C750        C751   1.409       .  A
C751        C752   1.403       .  A
C751       Br760   1.931       .  S
C752       Br756   1.929       .  S
C761        C762   1.418       .  A
C761        C766   1.421       .  A
C762        C763   1.406       .  A
C762       Br774   1.925       .  S
C763        C764   1.407       .  A
C763       Br778   1.935       .  S
C764        C767   1.493       .  S
C764        C765   1.410       .  A
C765        C766   1.415       .  A
C765       Br773   1.931       .  S
C766       Br777   1.933       .  S
C767        C768   1.412       .  A
C767        C772   1.412       .  A
C768        C769   1.408       .  A
C768       Br779   1.932       .  S
C769        C770   1.410       .  A
C769       Br775   1.928       .  S
C770        C771   1.412       .  A
C771        C772   1.411       .  A
C771       Br780   1.930       .  S
C772       Br776   1.930       .  S
C781        C782   1.415       .  A
C781        C786   1.416       .  A
C782        C783   1.408       .  A
C782       Br794   1.932       .  S
C783        C784   1.408       .  A
C783       Br798   1.931       .  S
C784        C787   1.483       .  S
C784        C785   1.407       .  A
C785        C786   1.406       .  A
C785       Br793   1.933       .  S
C786       Br797   1.932       .  S
C787        C788   1.408       .  A
C787        C792   1.408       .  A
C788        C789   1.405       .  A
C788       Br799   1.931       .  S
C789        C790   1.411       .  A
C789       Br795   1.927       .  S
C790        C791   1.415       .  A
C791        C792   1.408       .  A
C791       Br800   1.932       .  S
C792       Br796   1.931       .  S
C801        C802   1.413       .  A
C801        C806   1.414       .  A
C802        C803   1.409       .  A
C802       Br814   1.932       .  S
C803        C804   1.411       .  A
C803       Br818   1.931       .  S
C804        C807   1.485       .  S
C804        C805   1.406       .  A
C805        C806   1.405       .  A
C805       Br813   1.930       .  S
C806       Br817   1.931       .  S
C807        C808   1.408       .  A
C807        C812   1.409       .  A
C808        C809   1.409       .  A
C808       Br819   1.930       .  S
C809        C810   1.417       .  A
C809       Br815   1.933       .  S
C810        C811   1.414       .  A
C811        C812   1.406       .  A
C811       Br820   1.933       .  S
C812       Br816   1.933       .  S
C821        C822   1.412       .  A
C821        C826   1.410       .  A
C822        C823   1.402       .  A
C822       Br834   1.933       .  S
C823        C824   1.407       .  A
C823       Br838   1.933       .  S
C824        C827   1.475       .  S
C824        C825   1.408       .  A
C825        C826   1.405       .  A
C825       Br833   1.930       .  S
C826       Br837   1.931       .  S
C827        C828   1.408       .  A
C827        C832   1.404       .  A
C828        C829   1.407       .  A
C828       Br839   1.930       .  S
C829        C830   1.414       .  A
C829       Br835   1.931       .  S
C830        C831   1.414       .  A
C831        C832   1.400       .  A
C831       Br840   1.929       .  S
C832       Br836   1.934       .  S
C841        C842   1.417       .  A
C841        C846   1.418       .  A
C842        C843   1.408       .  A
C842       Br854   1.932       .  S
C843        C844   1.408       .  A
C843       Br858   1.932       .  S
C844        C847   1.483       .  S
C844        C845   1.405       .  A
C845        C846   1.408       .  A
C845       Br853   1.932       .  S
C846       Br857   1.929       .  S
C847        C848   1.409       .  A
C847        C852   1.407       .  A
C848        C849   1.408       .  A
C848       Br859   1.928       .  S
C849        C850   1.411       .  A
C849       Br855   1.931       .  S
C850        C851   1.413       .  A
C851        C852   1.405       .  A
C851       Br860   1.928       .  S
C852       Br856   1.931       .  S
C861        C862   1.414       .  A
C861        C866   1.412       .  A
C862        C863   1.409       .  A
C862       Br874   1.932       .  S
C863        C864   1.409       .  A
C863       Br878   1.930       .  S
C864        C867   1.484       .  S
C864        C865   1.409       .  A
C865        C866   1.404       .  A
C865       Br873   1.931       .  S
C866       Br877   1.934       .  S
C867        C868   1.408       .  A
C867        C872   1.408       .  A
C868        C869   1.408       .  A
C868       Br879   1.932       .  S
C869        C870   1.415       .  A
C869       Br875   1.930       .  S
C870        C871   1.416       .  A
C871        C872   1.408       .  A
C871       Br880   1.931       .  S
C872       Br876   1.932       .  S
C881        C882   1.408       .  A
C881        C886   1.411       .  A
C882        C883   1.406       .  A
C882       Br894   1.930       .  S
C883        C884   1.412       .  A
C883       Br898   1.932       .  S
C884        C887   1.489       .  S
C884        C885   1.411       .  A
C885        C886   1.410       .  A
C885       Br893   1.929       .  S
C886       Br897   1.930       .  S
C887        C888   1.406       .  A
C887        C892   1.411       .  A
C888        C889   1.403       .  A
C888       Br899   1.934       .  S
C889        C890   1.416       .  A
C889       Br895   1.932       .  S
C890        C891   1.417       .  A
C891        C892   1.415       .  A
C891       Br900   1.931       .  S
C892       Br896   1.930       .  S
C901        C902   1.417       .  A
C901        C906   1.415       .  A
C902        C903   1.409       .  A
C902       Br914   1.932       .  S
C903        C904   1.407       .  A
C903       Br918   1.930       .  S
C904        C907   1.483       .  S
C904        C905   1.407       .  A
C905        C906   1.407       .  A
C905       Br913   1.931       .  S
C906       Br917   1.931       .  S
C907        C908   1.408       .  A
C907        C912   1.407       .  A
C908        C909   1.405       .  A
C908       Br919   1.932       .  S
C909        C910   1.412       .  A
C909       Br915   1.931       .  S
C910        C911   1.416       .  A
C911        C912   1.409       .  A
C911       Br920   1.930       .  S
C912       Br916   1.929       .  S
C921        C922   1.428       .  A
C921        C926   1.420       .  A
C922        C923   1.408       .  A
C922       Br934   1.937       .  S
C923        C924   1.403       .  A
C923       Br938   1.934   1_655  S
C924        C927   1.478       .  S
C924        C925   1.404       .  A
C925        C926   1.404       .  A
C925       Br933   1.934       .  S
C926       Br937   1.935       .  S
C927        C928   1.407       .  A
C927        C932   1.408       .  A
C928        C929   1.405       .  A
C928       Br939   1.930       .  S
C929        C930   1.410   1_655  A
C929       Br935   1.931       .  S
C930        C931   1.411       .  A
C931        C932   1.406   1_455  A
C931       Br940   1.929       .  S
C932       Br936   1.931       .  S
C941        C942   1.410   1_455  A
C941        C946   1.410       .  A
C942        C943   1.411       .  A
C942       Br954   1.929       .  S
C943        C944   1.411       .  A
C943       Br958   1.929       .  S
C944        C947   1.491       .  S
C944        C945   1.409       .  A
C945        C946   1.407   1_655  A
C945       Br953   1.928       .  S
C946       Br957   1.931       .  S
C947        C948   1.405       .  A
C947        C952   1.405       .  A
C948        C949   1.413       .  A
C948       Br959   1.933       .  S
C949        C950   1.428       .  A
C949       Br955   1.936       .  S
C950        C951   1.423       .  A
C951        C952   1.410       .  A
C951       Br960   1.933       .  S
C952       Br956   1.933       .  S
C961        C962   1.410       .  A
C961        C966   1.412       .  A
C962        C963   1.404       .  A
C962       Br974   1.931       .  S
C963        C964   1.409       .  A
C963       Br978   1.933       .  S
C964        C967   1.482       .  S
C964        C965   1.410       .  A
C965        C966   1.408       .  A
C965       Br973   1.930       .  S
C966       Br977   1.930       .  S
C967        C968   1.409       .  A
C967        C972   1.408       .  A
C968        C969   1.409       .  A
C968       Br979   1.931       .  S
C969        C970   1.415       .  A
C969       Br975   1.933       .  S
C970        C971   1.413       .  A
C971        C972   1.403       .  A
C971       Br980   1.933       .  S
C972       Br976   1.932       .  S
C981        C982   1.413       .  A
C981        C986   1.411       .  A
C982        C983   1.407       .  A
C982       Br994   1.931       .  S
C983        C984   1.408       .  A
C983       Br998   1.931       .  S
C984        C987   1.482       .  S
C984        C985   1.409       .  A
C985        C986   1.406       .  A
C985       Br993   1.932       .  S
C986       Br997   1.932       .  S
C987        C988   1.409       .  A
C987        C992   1.407       .  A
C988        C989   1.406       .  A
C988       Br999   1.932       .  S
C989        C990   1.413       .  A
C989       Br995   1.932       .  S
C990        C991   1.413       .  A
C991        C992   1.406       .  A
C991      Br1000   1.926       .  S
C992       Br996   1.932       .  S
C1001      C1002   1.412       .  A
C1001      C1006   1.414       .  A
C1002      C1003   1.401       .  A
C1002     Br1014   1.932       .  S
C1003      C1004   1.406       .  A
C1003     Br1018   1.932       .  S
C1004      C1007   1.474       .  S
C1004      C1005   1.407       .  A
C1005      C1006   1.405       .  A
C1005     Br1013   1.932       .  S
C1006     Br1017   1.929       .  S
C1007      C1008   1.406       .  A
C1007      C1012   1.409       .  A
C1008      C1009   1.397       .  A
C1008     Br1019   1.933       .  S
C1009      C1010   1.407       .  A
C1009     Br1015   1.924       .  S
C1010      C1011   1.411       .  A
C1011      C1012   1.407       .  A
C1011     Br1020   1.928       .  S
C1012     Br1016   1.929       .  S
C1021      C1022   1.418       .  A
C1021      C1026   1.419       .  A
C1022      C1023   1.407       .  A
C1022     Br1034   1.934       .  S
C1023      C1024   1.407       .  A
C1023     Br1038   1.931       .  S
C1024      C1027   1.475       .  S
C1024      C1025   1.404       .  A
C1025      C1026   1.401       .  A
C1025     Br1033   1.935       .  S
C1026     Br1037   1.934       .  S
C1027      C1028   1.407       .  A
C1027      C1032   1.409       .  A
C1028      C1029   1.402       .  A
C1028     Br1039   1.932       .  S
C1029      C1030   1.408       .  A
C1029     Br1035   1.923       .  S
C1030      C1031   1.409       .  A
C1031      C1032   1.405       .  A
C1031     Br1040   1.931       .  S
C1032     Br1036   1.930       .  S
C1041      C1042   1.424       .  A
C1041      C1046   1.423       .  A
C1042      C1043   1.409       .  A
C1042     Br1054   1.936       .  S
C1043      C1044   1.405       .  A
C1043     Br1058   1.932       .  S
C1044      C1047   1.482       .  S
C1044      C1045   1.404       .  A
C1045      C1046   1.406       .  A
C1045     Br1053   1.935       .  S
C1046     Br1057   1.935       .  S
C1047      C1048   1.407       .  A
C1047      C1052   1.409       .  A
C1048      C1049   1.404       .  A
C1048     Br1059   1.930       .  S
C1049      C1050   1.411       .  A
C1049     Br1055   1.932       .  S
C1050      C1051   1.413       .  A
C1051      C1052   1.409       .  A
C1051     Br1060   1.931       .  S
C1052     Br1056   1.931       .  S
C1061      C1062   1.417       .  A
C1061      C1066   1.414       .  A
C1062      C1063   1.404       .  A
C1062     Br1074   1.934       .  S
C1063      C1064   1.405       .  A
C1063     Br1078   1.931       .  S
C1064      C1067   1.476       .  S
C1064      C1065   1.407       .  A
C1065      C1066   1.404       .  A
C1065     Br1073   1.932       .  S
C1066     Br1077   1.933       .  S
C1067      C1068   1.408       .  A
C1067      C1072   1.406       .  A
C1068      C1069   1.404       .  A
C1068     Br1079   1.932       .  S
C1069      C1070   1.411       .  A
C1069     Br1075   1.931       .  S
C1070      C1071   1.414       .  A
C1071      C1072   1.405       .  A
C1071     Br1080   1.931       .  S
C1072     Br1076   1.931       .  S
C1081      C1082   1.409       .  A
C1081      C1086   1.417       .  A
C1082      C1083   1.404       .  A
C1082     Br1094   1.927       .  S
C1083      C1084   1.408       .  A
C1083     Br1098   1.931       .  S
C1084      C1087   1.479       .  S
C1084      C1085   1.406       .  A
C1085      C1086   1.407       .  A
C1085     Br1093   1.930       .  S
C1086     Br1097   1.930       .  S
C1087      C1088   1.407       .  A
C1087      C1092   1.406       .  A
C1088      C1089   1.407       .  A
C1088     Br1099   1.931       .  S
C1089      C1090   1.416       .  A
C1089     Br1095   1.932       .  S
C1090      C1091   1.414       .  A
C1091      C1092   1.405       .  A
C1091     Br1100   1.932       .  S
C1092     Br1096   1.931       .  S
C1101      C1102   1.410       .  A
C1101      C1106   1.411       .  A
C1102      C1103   1.405       .  A
C1102     Br1114   1.932       .  S
C1103      C1104   1.410       .  A
C1103     Br1118   1.931       .  S
C1104      C1107   1.485       .  S
C1104      C1105   1.410       .  A
C1105      C1106   1.408       .  A
C1105     Br1113   1.930       .  S
C1106     Br1117   1.930       .  S
C1107      C1108   1.409       .  A
C1107      C1112   1.409       .  A
C1108      C1109   1.409       .  A
C1108     Br1119   1.931       .  S
C1109      C1110   1.416       .  A
C1109     Br1115   1.933       .  S
C1110      C1111   1.413       .  A
C1111      C1112   1.405       .  A
C1111     Br1120   1.933       .  S
C1112     Br1116   1.933       .  S
C1121      C1122   1.416       .  A
C1121      C1126   1.414       .  A
C1122      C1123   1.403       .  A
C1122     Br1134   1.934       .  S
C1123      C1124   1.405       .  A
C1123     Br1138   1.932       .  S
C1124      C1127   1.472       .  S
C1124      C1125   1.406       .  A
C1125      C1126   1.402       .  A
C1125     Br1133   1.933       .  S
C1126     Br1137   1.934       .  S
C1127      C1128   1.404       .  A
C1127      C1132   1.407       .  A
C1128      C1129   1.401       .  A
C1128     Br1139   1.934       .  S
C1129      C1130   1.415       .  A
C1129     Br1135   1.928       .  S
C1130      C1131   1.415       .  A
C1131      C1132   1.405       .  A
C1131     Br1140   1.933       .  S
C1132     Br1136   1.931       .  S
C1141      C1142   1.428       .  A
C1141      C1146   1.431       .  A
C1142      C1143   1.408       .  A
C1142     Br1154   1.938       .  S
C1143      C1144   1.403       .  A
C1143     Br1158   1.935       .  S
C1144      C1147   1.485       .  S
C1144      C1145   1.403       .  A
C1145      C1146   1.412       .  A
C1145     Br1153   1.935       .  S
C1146     Br1157   1.938       .  S
C1147      C1148   1.410       .  A
C1147      C1152   1.410       .  A
C1148      C1149   1.405       .  A
C1148     Br1159   1.930       .  S
C1149      C1150   1.407       .  A
C1149     Br1155   1.930       .  S
C1150      C1151   1.408       .  A
C1151      C1152   1.409       .  A
C1151     Br1160   1.929       .  S
C1152     Br1156   1.928       .  S
C1161      C1162   1.420       .  A
C1161      C1166   1.424       .  A
C1162      C1163   1.408       .  A
C1162     Br1174   1.934       .  S
C1163      C1164   1.406       .  A
C1163     Br1178   1.932       .  S
C1164      C1167   1.487       .  S
C1164      C1165   1.406       .  A
C1165      C1166   1.410       .  A
C1165     Br1173   1.932       .  S
C1166     Br1177   1.936       .  S
C1167      C1168   1.407       .  A
C1167      C1172   1.408       .  A
C1168      C1169   1.409   1_655  A
C1168     Br1179   1.930       .  S
C1169      C1170   1.416       .  A
C1169     Br1175   1.931       .  S
C1170      C1171   1.415   1_455  A
C1171      C1172   1.409       .  A
C1171     Br1180   1.929       .  S
C1172     Br1176   1.932       .  S
C1181      C1182   1.408       .  A
C1181      C1186   1.406   1_455  A
C1182      C1183   1.407   1_455  A
C1182     Br1194   1.929       .  S
C1183      C1184   1.412       .  A
C1183     Br1198   1.931   1_655  S
C1184      C1187   1.488       .  S
C1184      C1185   1.413       .  A
C1185      C1186   1.406       .  A
C1185     Br1193   1.931       .  S
C1186     Br1197   1.928   1_655  S
C1187      C1188   1.412       .  A
C1187      C1192   1.411       .  A
C1188      C1189   1.405       .  A
C1188     Br1199   1.933       .  S
C1189      C1190   1.411       .  A
C1189     Br1195   1.933       .  S
C1190      C1191   1.413       .  A
C1191      C1192   1.407       .  A
C1191     Br1200   1.932       .  S
C1192     Br1196   1.931       .  S
C1201      C1202   1.407       .  A
C1201      C1206   1.406       .  A
C1202      C1203   1.406       .  A
C1202     Br1214   1.929       .  S
C1203      C1204   1.411       .  A
C1203     Br1218   1.930       .  S
C1204      C1207   1.479       .  S
C1204      C1205   1.409       .  A
C1205      C1206   1.403       .  A
C1205     Br1213   1.930       .  S
C1206     Br1217   1.929       .  S
C1207      C1208   1.403       .  A
C1207      C1212   1.403       .  A
C1208      C1209   1.408       .  A
C1208     Br1219   1.935       .  S
C1209      C1210   1.429       .  A
C1209     Br1215   1.937       .  S
C1210      C1211   1.426       .  A
C1211      C1212   1.405       .  A
C1211     Br1220   1.936       .  S
C1212     Br1216   1.935       .  S
C1221      C1222   1.417       .  A
C1221      C1226   1.416       .  A
C1222      C1223   1.406       .  A
C1222     Br1234   1.933       .  S
C1223      C1224   1.407       .  A
C1223     Br1238   1.932       .  S
C1224      C1227   1.480       .  S
C1224      C1225   1.406       .  A
C1225      C1226   1.406       .  A
C1225     Br1233   1.931       .  S
C1226     Br1237   1.933       .  S
C1227      C1228   1.407       .  A
C1227      C1232   1.408       .  A
C1228      C1229   1.406       .  A
C1228     Br1239   1.930       .  S
C1229      C1230   1.413       .  A
C1229     Br1235   1.930       .  S
C1230      C1231   1.412       .  A
C1231      C1232   1.405       .  A
C1231     Br1240   1.932       .  S
C1232     Br1236   1.931       .  S
C1241      C1242   1.411       .  A
C1241      C1246   1.418       .  A
C1242      C1243   1.398       .  A
C1242     Br1254   1.923       .  S
C1243      C1244   1.404       .  A
C1243     Br1258   1.933       .  S
C1244      C1247   1.474       .  S
C1244      C1245   1.406       .  A
C1245      C1246   1.409       .  A
C1245     Br1253   1.931       .  S
C1246     Br1257   1.931       .  S
C1247      C1248   1.406       .  A
C1247      C1252   1.407       .  A
C1248      C1249   1.403       .  A
C1248     Br1259   1.931       .  S
C1249      C1250   1.412       .  A
C1249     Br1255   1.931       .  S
C1250      C1251   1.412       .  A
C1251      C1252   1.403       .  A
C1251     Br1260   1.933       .  S
C1252     Br1256   1.931       .  S
C1261      C1262   1.415       .  A
C1261      C1266   1.416       .  A
C1262      C1263   1.401       .  A
C1262     Br1274   1.933       .  S
C1263      C1264   1.405       .  A
C1263     Br1278   1.934       .  S
C1264      C1267   1.466       .  S
C1264      C1265   1.403       .  A
C1265      C1266   1.401       .  A
C1265     Br1273   1.933       .  S
C1266     Br1277   1.932       .  S
C1267      C1268   1.406       .  A
C1267      C1272   1.406       .  A
C1268      C1269   1.399       .  A
C1268     Br1279   1.933       .  S
C1269      C1270   1.408       .  A
C1269     Br1275   1.923       .  S
C1270      C1271   1.410       .  A
C1271      C1272   1.401       .  A
C1271     Br1280   1.932       .  S
C1272     Br1276   1.930       .  S
C1281      C1282   1.420       .  A
C1281      C1286   1.419       .  A
C1282      C1283   1.405       .  A
C1282     Br1294   1.932       .  S
C1283      C1284   1.403       .  A
C1283     Br1298   1.933       .  S
C1284      C1287   1.479       .  S
C1284      C1285   1.407       .  A
C1285      C1286   1.408       .  A
C1285     Br1293   1.932       .  S
C1286     Br1297   1.935       .  S
C1287      C1288   1.408       .  A
C1287      C1292   1.408       .  A
C1288      C1289   1.406       .  A
C1288     Br1299   1.930       .  S
C1289      C1290   1.412       .  A
C1289     Br1295   1.931       .  S
C1290      C1291   1.410       .  A
C1291      C1292   1.404       .  A
C1291     Br1300   1.933       .  S
C1292     Br1296   1.930       .  S
C1301      C1302   1.415       .  A
C1301      C1306   1.414       .  A
C1302      C1303   1.405       .  A
C1302     Br1314   1.933       .  S
C1303      C1304   1.406       .  A
C1303     Br1318   1.930       .  S
C1304      C1307   1.480       .  S
C1304      C1305   1.407       .  A
C1305      C1306   1.406       .  A
C1305     Br1313   1.930       .  S
C1306     Br1317   1.930       .  S
C1307      C1308   1.406       .  A
C1307      C1312   1.408       .  A
C1308      C1309   1.407       .  A
C1308     Br1319   1.930       .  S
C1309      C1310   1.415       .  A
C1309     Br1315   1.931       .  S
C1310      C1311   1.413       .  A
C1311      C1312   1.406       .  A
C1311     Br1320   1.932       .  S
C1312     Br1316   1.933       .  S
C1321      C1322   1.409       .  A
C1321      C1326   1.409       .  A
C1322      C1323   1.406       .  A
C1322     Br1334   1.929       .  S
C1323      C1324   1.410       .  A
C1323     Br1338   1.931       .  S
C1324      C1327   1.481       .  S
C1324      C1325   1.409       .  A
C1325      C1326   1.406       .  A
C1325     Br1333   1.931       .  S
C1326     Br1337   1.930       .  S
C1327      C1328   1.407       .  A
C1327      C1332   1.405       .  A
C1328      C1329   1.407       .  A
C1328     Br1339   1.933       .  S
C1329      C1330   1.419       .  A
C1329     Br1335   1.935       .  S
C1330      C1331   1.421       .  A
C1331      C1332   1.406       .  A
C1331     Br1340   1.932       .  S
C1332     Br1336   1.933       .  S
C1341      C1342   1.424       .  A
C1341      C1346   1.418       .  A
C1342      C1343   1.409       .  A
C1342     Br1354   1.935       .  S
C1343      C1344   1.405       .  A
C1343     Br1358   1.933       .  S
C1344      C1347   1.483       .  S
C1344      C1345   1.407       .  A
C1345      C1346   1.406       .  A
C1345     Br1353   1.933       .  S
C1346     Br1357   1.933       .  S
C1347      C1348   1.410       .  A
C1347      C1352   1.410       .  A
C1348      C1349   1.407       .  A
C1348     Br1359   1.930       .  S
C1349      C1350   1.409       .  A
C1349     Br1355   1.929       .  S
C1350      C1351   1.407       .  A
C1351      C1352   1.405       .  A
C1351     Br1360   1.927       .  S
C1352     Br1356   1.931       .  S
C1361      C1362   1.416       .  A
C1361      C1366   1.417       .  A
C1362      C1363   1.403       .  A
C1362     Br1374   1.933       .  S
C1363      C1364   1.405       .  A
C1363     Br1378   1.931       .  S
C1364      C1367   1.477       .  S
C1364      C1365   1.407       .  A
C1365      C1366   1.405       .  A
C1365     Br1373   1.932       .  S
C1366     Br1377   1.934       .  S
C1367      C1368   1.408       .  A
C1367      C1372   1.409       .  A
C1368      C1369   1.406       .  A
C1368     Br1379   1.930       .  S
C1369      C1370   1.411       .  A
C1369     Br1375   1.930       .  S
C1370      C1371   1.407       .  A
C1371      C1372   1.403       .  A
C1371     Br1380   1.926       .  S
C1372     Br1376   1.933       .  S
C1381      C1382   1.411       .  A
C1381      C1386   1.411       .  A
C1382      C1383   1.407       .  A
C1382     Br1394   1.928       .  S
C1383      C1384   1.408       .  A
C1383     Br1398   1.930       .  S
C1384      C1387   1.482       .  S
C1384      C1385   1.408       .  A
C1385      C1386   1.406       .  A
C1385     Br1393   1.931       .  S
C1386     Br1397   1.924       .  S
C1387      C1388   1.408       .  A
C1387      C1392   1.407       .  A
C1388      C1389   1.408       .  A
C1388     Br1399   1.931       .  S
C1389      C1390   1.419       .  A
C1389     Br1395   1.933       .  S
C1390      C1391   1.412       .  A
C1391      C1392   1.403       .  A
C1391     Br1400   1.933       .  S
C1392     Br1396   1.930       .  S
C1401      C1402   1.414       .  A
C1401      C1406   1.415       .  A
C1402      C1403   1.408       .  A
C1402     Br1414   1.932       .  S
C1403      C1404   1.408       .  A
C1403     Br1418   1.929       .  S
C1404      C1407   1.484       .  S
C1404      C1405   1.407       .  A
C1405      C1406   1.406       .  A
C1405     Br1413   1.933       .  S
C1406     Br1417   1.928       .  S
C1407      C1408   1.409       .  A
C1407      C1412   1.408       .  A
C1408      C1409   1.410       .  A
C1408     Br1419   1.930       .  S
C1409      C1410   1.415       .  A
C1409     Br1415   1.931       .  S
C1410      C1411   1.413       .  A
C1411      C1412   1.405       .  A
C1411     Br1420   1.933       .  S
C1412     Br1416   1.933       .  S
C1421      C1422   1.414       .  A
C1421      C1426   1.414       .  A
C1422      C1423   1.404       .  A
C1422     Br1434   1.932       .  S
C1423      C1424   1.406       .  A
C1423     Br1438   1.931       .  S
C1424      C1427   1.478       .  S
C1424      C1425   1.407       .  A
C1425      C1426   1.406       .  A
C1425     Br1433   1.930       .  S
C1426     Br1437   1.932       .  S
C1427      C1428   1.405       .  A
C1427      C1432   1.406       .  A
C1428      C1429   1.404       .  A
C1428     Br1439   1.933       .  S
C1429      C1430   1.417       .  A
C1429     Br1435   1.934       .  S
C1430      C1431   1.415       .  A
C1431      C1432   1.407       .  A
C1431     Br1440   1.931       .  S
C1432     Br1436   1.931       .  S
C1441      C1442   1.417       .  A
C1441      C1446   1.420       .  A
C1442      C1443   1.400       .  A
C1442     Br1454   1.931       .  S
C1443      C1444   1.405       .  A
C1443     Br1458   1.936       .  S
C1444      C1447   1.481       .  S
C1444      C1445   1.408       .  A
C1445      C1446   1.411       .  A
C1445     Br1453   1.931       .  S
C1446     Br1457   1.932       .  S
C1447      C1448   1.409       .  A
C1447      C1452   1.412       .  A
C1448      C1449   1.402       .  A
C1448     Br1459   1.930       .  S
C1449      C1450   1.407       .  A
C1449     Br1455   1.929       .  S
C1450      C1451   1.407       .  A
C1451      C1452   1.407       .  A
C1451     Br1460   1.928       .  S
C1452     Br1456   1.930       .  S
C1461      C1462   1.418       .  A
C1461      C1466   1.416       .  A
C1462      C1463   1.407       .  A
C1462     Br1474   1.927       .  S
C1463      C1464   1.407       .  A
C1463     Br1478   1.934       .  S
C1464      C1467   1.492       .  S
C1464      C1465   1.411       .  A
C1465      C1466   1.414       .  A
C1465     Br1473   1.928       .  S
C1466     Br1477   1.931       .  S
C1467      C1468   1.408       .  A
C1467      C1472   1.404       .  A
C1468      C1469   1.416       .  A
C1468     Br1479   1.928       .  S
C1469      C1470   1.420       .  A
C1469     Br1475   1.929       .  S
C1470      C1471   1.417       .  A
C1471      C1472   1.408       .  A
C1471     Br1480   1.919       .  S
C1472     Br1476   1.928       .  S
C1481      C1482   1.411       .  A
C1481      C1486   1.409       .  A
C1482      C1483   1.411       .  A
C1482     Br1494   1.929       .  S
C1483      C1484   1.413       .  A
C1483     Br1498   1.930       .  S
C1484      C1487   1.493       .  S
C1484      C1485   1.411       .  A
C1485      C1486   1.407       .  A
C1485     Br1493   1.931       .  S
C1486     Br1497   1.926       .  S
C1487      C1488   1.413       .  A
C1487      C1492   1.408       .  A
C1488      C1489   1.413       .  A
C1488     Br1499   1.930       .  S
C1489      C1490   1.415       .  A
C1489     Br1495   1.931       .  S
C1490      C1491   1.416       .  A
C1491      C1492   1.406       .  A
C1491     Br1500   1.925       .  S
C1492     Br1496   1.935       .  S
C1501      C1502   1.427       .  A
C1501      C1506   1.417       .  A
C1502      C1503   1.409       .  A
C1502     Br1514   1.935       .  S
C1503      C1504   1.403       .  A
C1503     Br1518   1.933       .  S
C1504      C1507   1.481       .  S
C1504      C1505   1.403       .  A
C1505      C1506   1.403       .  A
C1505     Br1513   1.926       .  S
C1506     Br1517   1.927       .  S
C1507      C1508   1.407       .  A
C1507      C1512   1.407       .  A
C1508      C1509   1.405       .  A
C1508     Br1519   1.933       .  S
C1509      C1510   1.414       .  A
C1509     Br1515   1.931       .  S
C1510      C1511   1.417       .  A
C1511      C1512   1.408       .  A
C1511     Br1520   1.932       .  S
C1512     Br1516   1.931       .  S
C1521      C1522   1.413       .  A
C1521      C1526   1.412       .  A
C1522      C1523   1.407       .  A
C1522     Br1534   1.914       .  S
C1523      C1524   1.405       .  A
C1523     Br1538   1.932       .  S
C1524      C1527   1.486       .  S
C1524      C1525   1.410       .  A
C1525      C1526   1.409       .  A
C1525     Br1533   1.929       .  S
C1526     Br1537   1.931       .  S
C1527      C1528   1.407       .  A
C1527      C1532   1.407       .  A
C1528      C1529   1.407       .  A
C1528     Br1539   1.932       .  S
C1529      C1530   1.418       .  A
C1529     Br1535   1.935       .  S
C1530      C1531   1.418       .  A
C1531      C1532   1.411       .  A
C1531     Br1540   1.931       .  S
C1532     Br1536   1.930       .  S
C1541      C1542   1.407       .  A
C1541      C1546   1.408       .  A
C1542      C1543   1.404       .  A
C1542     Br1554   1.929       .  S
C1543      C1544   1.408       .  A
C1543     Br1558   1.929       .  S
C1544      C1547   1.474       .  S
C1544      C1545   1.408       .  A
C1545      C1546   1.402       .  A
C1545     Br1553   1.932       .  S
C1546     Br1557   1.931       .  S
C1547      C1548   1.402       .  A
C1547      C1552   1.404       .  A
C1548      C1549   1.406       .  A
C1548     Br1559   1.934       .  S
C1549      C1550   1.427       .  A
C1549     Br1555   1.937       .  S
C1550      C1551   1.423       .  A
C1551      C1552   1.403       .  A
C1551     Br1560   1.939       .  S
C1552     Br1556   1.935       .  S
C1561      C1562   1.416       .  A
C1561      C1566   1.412       .  A
C1562      C1563   1.411       .  A
C1562     Br1574   1.927       .  S
C1563      C1564   1.409       .  A
C1563     Br1578   1.930       .  S
C1564      C1567   1.485       .  S
C1564      C1565   1.408       .  A
C1565      C1566   1.405       .  A
C1565     Br1573   1.933       .  S
C1566     Br1577   1.926       .  S
C1567      C1568   1.408       .  A
C1567      C1572   1.407       .  A
C1568      C1569   1.408       .  A
C1568     Br1579   1.930       .  S
C1569      C1570   1.415       .  A
C1569     Br1575   1.929       .  S
C1570      C1571   1.417       .  A
C1571      C1572   1.407       .  A
C1571     Br1580   1.934       .  S
C1572     Br1576   1.931       .  S
C1581      C1582   1.430       .  A
C1581      C1586   1.426       .  A
C1582      C1583   1.406       .  A
C1582     Br1594   1.942       .  S
C1583      C1584   1.403       .  A
C1583     Br1598   1.936       .  S
C1584      C1587   1.477       .  S
C1584      C1585   1.402       .  A
C1585      C1586   1.406       .  A
C1585     Br1593   1.934       .  S
C1586     Br1597   1.937       .  S
C1587      C1588   1.408       .  A
C1587      C1592   1.409       .  A
C1588      C1589   1.404       .  A
C1588     Br1599   1.931       .  S
C1589      C1590   1.408       .  A
C1589     Br1595   1.929       .  S
C1590      C1591   1.407       .  A
C1591      C1592   1.405       .  A
C1591     Br1600   1.929       .  S
C1592     Br1596   1.930       .  S
C1601      C1602   1.411       .  A
C1601      C1606   1.414       .  A
C1602      C1603   1.402       .  A
C1602     Br1614   1.925       .  S
C1603      C1604   1.407       .  A
C1603     Br1618   1.933       .  S
C1604      C1607   1.482       .  S
C1604      C1605   1.409       .  A
C1605      C1606   1.408       .  A
C1605     Br1613   1.930       .  S
C1606     Br1617   1.929       .  S
C1607      C1608   1.409       .  A
C1607      C1612   1.410       .  A
C1608      C1609   1.401       .  A
C1608     Br1619   1.933       .  S
C1609      C1610   1.407       .  A
C1609     Br1615   1.925       .  S
C1610      C1611   1.413       .  A
C1611      C1612   1.410       .  A
C1611     Br1620   1.928       .  S
C1612     Br1616   1.930       .  S
C1621      C1622   1.423       .  A
C1621      C1626   1.426       .  A
C1622      C1623   1.409       .  A
C1622     Br1634   1.923       .  S
C1623      C1624   1.404       .  A
C1623     Br1638   1.935       .  S
C1624      C1627   1.487       .  S
C1624      C1625   1.404       .  A
C1625      C1626   1.411       .  A
C1625     Br1633   1.932       .  S
C1626     Br1637   1.935       .  S
C1627      C1628   1.409       .  A
C1627      C1632   1.408       .  A
C1628      C1629   1.410       .  A
C1628     Br1639   1.930       .  S
C1629      C1630   1.414       .  A
C1629     Br1635   1.931       .  S
C1630      C1631   1.413       .  A
C1631      C1632   1.407       .  A
C1631     Br1640   1.929       .  S
C1632     Br1636   1.931       .  S
C1641      C1642   1.409       .  A
C1641      C1646   1.410       .  A
C1642      C1643   1.404       .  A
C1642     Br1654   1.929       .  S
C1643      C1644   1.407       .  A
C1643     Br1658   1.931       .  S
C1644      C1647   1.476       .  S
C1644      C1645   1.408       .  A
C1645      C1646   1.405       .  A
C1645     Br1653   1.930       .  S
C1646     Br1657   1.929       .  S
C1647      C1648   1.402       .  A
C1647      C1652   1.402       .  A
C1648      C1649   1.403       .  A
C1648     Br1659   1.937       .  S
C1649      C1650   1.430       .  A
C1649     Br1655   1.941       .  S
C1650      C1651   1.424       .  A
C1651      C1652   1.407       .  A
C1651     Br1660   1.935       .  S
C1652     Br1656   1.932       .  S
C1661      C1662   1.415       .  A
C1661      C1666   1.416       .  A
C1662      C1663   1.404       .  A
C1662     Br1674   1.933       .  S
C1663      C1664   1.407       .  A
C1663     Br1678   1.933       .  S
C1664      C1667   1.477       .  S
C1664      C1665   1.405       .  A
C1665      C1666   1.406       .  A
C1665     Br1673   1.930       .  S
C1666     Br1677   1.932       .  S
C1667      C1668   1.407       .  A
C1667      C1672   1.407       .  A
C1668      C1669   1.406       .  A
C1668     Br1679   1.930       .  S
C1669      C1670   1.412       .  A
C1669     Br1675   1.930       .  S
C1670      C1671   1.411       .  A
C1671      C1672   1.404       .  A
C1671     Br1680   1.932       .  S
C1672     Br1676   1.931       .  S
C1681      C1682   1.416       .  A
C1681      C1686   1.414       .  A
C1682      C1683   1.405       .  A
C1682     Br1694   1.932       .  S
C1683      C1684   1.405       .  A
C1683     Br1698   1.931       .  S
C1684      C1687   1.479       .  S
C1684      C1685   1.409       .  A
C1685      C1686   1.407       .  A
C1685     Br1693   1.932       .  S
C1686     Br1697   1.932       .  S
C1687      C1688   1.407       .  A
C1687      C1692   1.406       .  A
C1688      C1689   1.404       .  A
C1688     Br1699   1.929       .  S
C1689      C1690   1.412       .  A
C1689     Br1695   1.932       .  S
C1690      C1691   1.417       .  A
C1691      C1692   1.407       .  A
C1691     Br1700   1.932       .  S
C1692     Br1696   1.930       .  S
C1701      C1702   1.420       .  A
C1701      C1706   1.415       .  A
C1702      C1703   1.408       .  A
C1702     Br1714   1.935       .  S
C1703      C1704   1.406   1_455  A
C1703     Br1718   1.933       .  S
C1704      C1707   1.485       .  S
C1704      C1705   1.408       .  A
C1705      C1706   1.409   1_655  A
C1705     Br1713   1.931       .  S
C1706     Br1717   1.931       .  S
C1707      C1708   1.408       .  A
C1707      C1712   1.407       .  A
C1708      C1709   1.409       .  A
C1708     Br1719   1.930       .  S
C1709      C1710   1.415       .  A
C1709     Br1715   1.931       .  S
C1710      C1711   1.416       .  A
C1711      C1712   1.407       .  A
C1711     Br1720   1.932       .  S
C1712     Br1716   1.932       .  S
C1721      C1722   1.413       .  A
C1721      C1726   1.414       .  A
C1722      C1723   1.408       .  A
C1722     Br1734   1.929       .  S
C1723      C1724   1.408       .  A
C1723     Br1738   1.930       .  S
C1724      C1727   1.482       .  S
C1724      C1725   1.408       .  A
C1725      C1726   1.405       .  A
C1725     Br1733   1.932       .  S
C1726     Br1737   1.934       .  S
C1727      C1728   1.409       .  A
C1727      C1732   1.408       .  A
C1728      C1729   1.407       .  A
C1728     Br1739   1.929       .  S
C1729      C1730   1.411       .  A
C1729     Br1735   1.930       .  S
C1730      C1731   1.411       .  A
C1731      C1732   1.405       .  A
C1731     Br1740   1.928       .  S
C1732     Br1736   1.931       .  S
C1741      C1742   1.417       .  A
C1741      C1746   1.418       .  A
C1742      C1743   1.400       .  A
C1742     Br1754   1.932       .  S
C1743      C1744   1.405       .  A
C1743     Br1758   1.934       .  S
C1744      C1747   1.474       .  S
C1744      C1745   1.406       .  A
C1745      C1746   1.407       .  A
C1745     Br1753   1.931       .  S
C1746     Br1757   1.932       .  S
C1747      C1748   1.409       .  A
C1747      C1752   1.409       .  A
C1748      C1749   1.403   1_655  A
C1748     Br1759   1.931       .  S
C1749      C1750   1.409       .  A
C1749     Br1755   1.933       .  S
C1750      C1751   1.409       .  A
C1751      C1752   1.402   1_455  A
C1751     Br1760   1.931       .  S
C1752     Br1756   1.932       .  S
C1761      C1762   1.406       .  A
C1761      C1766   1.410       .  A
C1762      C1763   1.405       .  A
C1762     Br1774   1.927       .  S
C1763      C1764   1.409       .  A
C1763     Br1778   1.928       .  S
C1764      C1767   1.485       .  S
C1764      C1765   1.410       .  A
C1765      C1766   1.409       .  A
C1765     Br1773   1.929       .  S
C1766     Br1777   1.927       .  S
C1767      C1768   1.405   1_655  A
C1767      C1772   1.408       .  A
C1768      C1769   1.405       .  A
C1768     Br1779   1.932       .  S
C1769      C1770   1.420       .  A
C1769     Br1775   1.935       .  S
C1770      C1771   1.419       .  A
C1771      C1772   1.411   1_455  A
C1771     Br1780   1.932       .  S
C1772     Br1776   1.931       .  S
C1781      C1782   1.410       .  A
C1781      C1786   1.409       .  A
C1782      C1783   1.410       .  A
C1782     Br1794   1.927       .  S
C1783      C1784   1.410       .  A
C1783     Br1798   1.927       .  S
C1784      C1787   1.485       .  S
C1784      C1785   1.408       .  A
C1785      C1786   1.404       .  A
C1785     Br1793   1.933       .  S
C1786     Br1797   1.921       .  S
C1787      C1788   1.405       .  A
C1787      C1792   1.405       .  A
C1788      C1789   1.409       .  A
C1788     Br1799   1.933       .  S
C1789      C1790   1.422       .  A
C1789     Br1795   1.933       .  S
C1790      C1791   1.423       .  A
C1791      C1792   1.408       .  A
C1791     Br1800   1.936       .  S
C1792     Br1796   1.933       .  S
C1801      C1802   1.421       .  A
C1801      C1806   1.425       .  A
C1802      C1803   1.414       .  A
C1802     Br1814   1.931       .  S
C1803      C1804   1.408       .  A
C1803     Br1818   1.931       .  S
C1804      C1807   1.495       .  S
C1804      C1805   1.406       .  A
C1805      C1806   1.410       .  A
C1805     Br1813   1.934   1_655  S
C1806     Br1817   1.932       .  S
C1807      C1808   1.410   1_655  A
C1807      C1812   1.408       .  A
C1808      C1809   1.412       .  A
C1808     Br1819   1.932       .  S
C1809      C1810   1.418       .  A
C1809     Br1815   1.931       .  S
C1810      C1811   1.420       .  A
C1811      C1812   1.412   1_455  A
C1811     Br1820   1.933       .  S
C1812     Br1816   1.931       .  S
C1821      C1822   1.422       .  A
C1821      C1826   1.428       .  A
C1822      C1823   1.404       .  A
C1822     Br1834   1.936       .  S
C1823      C1824   1.404       .  A
C1823     Br1838   1.935       .  S
C1824      C1827   1.479       .  S
C1824      C1825   1.404       .  A
C1825      C1826   1.411       .  A
C1825     Br1833   1.934       .  S
C1826     Br1837   1.937       .  S
C1827      C1828   1.410       .  A
C1827      C1832   1.408       .  A
C1828      C1829   1.406       .  A
C1828     Br1839   1.929       .  S
C1829      C1830   1.407       .  A
C1829     Br1835   1.928       .  S
C1830      C1831   1.409       .  A
C1831      C1832   1.403       .  A
C1831     Br1840   1.931       .  S
C1832     Br1836   1.930       .  S
C1841      C1842   1.410       .  A
C1841      C1846   1.406       .  A
C1842      C1843   1.409       .  A
C1842     Br1854   1.928       .  S
C1843      C1844   1.412       .  A
C1843     Br1858   1.930       .  S
C1844      C1847   1.488       .  S
C1844      C1845   1.412       .  A
C1845      C1846   1.405       .  A
C1845     Br1853   1.931       .  S
C1846     Br1857   1.927       .  S
C1847      C1848   1.410       .  A
C1847      C1852   1.410       .  A
C1848      C1849   1.408       .  A
C1848     Br1859   1.933       .  S
C1849      C1850   1.416       .  A
C1849     Br1855   1.933       .  S
C1850      C1851   1.416       .  A
C1851      C1852   1.407       .  A
C1851     Br1860   1.935       .  S
C1852     Br1856   1.933       .  S
C1861      C1862   1.405       .  A
C1861      C1866   1.407       .  A
C1862      C1863   1.404       .  A
C1862     Br1874   1.930       .  S
C1863      C1864   1.412       .  A
C1863     Br1878   1.929       .  S
C1864      C1867   1.481       .  S
C1864      C1865   1.410       .  A
C1865      C1866   1.404       .  A
C1865     Br1873   1.931       .  S
C1866     Br1877   1.925       .  S
C1867      C1868   1.405   1_655  A
C1867      C1872   1.407       .  A
C1868      C1869   1.404       .  A
C1868     Br1879   1.935       .  S
C1869      C1870   1.421       .  A
C1869     Br1875   1.936       .  S
C1870      C1871   1.419       .  A
C1871      C1872   1.409   1_455  A
C1871     Br1880   1.931       .  S
C1872     Br1876   1.933       .  S
C1881      C1882   1.414       .  A
C1881      C1886   1.413       .  A
C1882      C1883   1.405       .  A
C1882     Br1894   1.932       .  S
C1883      C1884   1.407       .  A
C1883     Br1898   1.932       .  S
C1884      C1887   1.477       .  S
C1884      C1885   1.406       .  A
C1885      C1886   1.406       .  A
C1885     Br1893   1.931       .  S
C1886     Br1897   1.930       .  S
C1887      C1888   1.403       .  A
C1887      C1892   1.406       .  A
C1888      C1889   1.404       .  A
C1888     Br1899   1.929       .  S
C1889      C1890   1.412       .  A
C1889     Br1895   1.921       .  S
C1890      C1891   1.422       .  A
C1891      C1892   1.406       .  A
C1891     Br1900   1.933       .  S
C1892     Br1896   1.935       .  S
C1901      C1902   1.414       .  A
C1901      C1906   1.419       .  A
C1902      C1903   1.407   1_455  A
C1902     Br1914   1.928       .  S
C1903      C1904   1.406       .  A
C1903     Br1918   1.930       .  S
C1904      C1907   1.479       .  S
C1904      C1905   1.405   1_655  A
C1905      C1906   1.406       .  A
C1905     Br1913   1.935       .  S
C1906     Br1917   1.934       .  S
C1907      C1908   1.406       .  A
C1907      C1912   1.407       .  A
C1908      C1909   1.404       .  A
C1908     Br1919   1.930       .  S
C1909      C1910   1.415       .  A
C1909     Br1915   1.932       .  S
C1910      C1911   1.414       .  A
C1911      C1912   1.405       .  A
C1911     Br1920   1.932       .  S
C1912     Br1916   1.931       .  S
C1921      C1922   1.409       .  A
C1921      C1926   1.410       .  A
C1922      C1923   1.407       .  A
C1922     Br1934   1.926       .  S
C1923      C1924   1.410       .  A
C1923     Br1938   1.930       .  S
C1924      C1927   1.484       .  S
C1924      C1925   1.410       .  A
C1925      C1926   1.407       .  A
C1925     Br1933   1.931       .  S
C1926     Br1937   1.929       .  S
C1927      C1928   1.407       .  A
C1927      C1932   1.408       .  A
C1928      C1929   1.403       .  A
C1928     Br1939   1.933       .  S
C1929      C1930   1.416       .  A
C1929     Br1935   1.934       .  S
C1930      C1931   1.419       .  A
C1931      C1932   1.410       .  A
C1931     Br1940   1.933       .  S
C1932     Br1936   1.930       .  S
C1941      C1942   1.424       .  A
C1941      C1946   1.416       .  A
C1942      C1943   1.411       .  A
C1942     Br1954   1.934       .  S
C1943      C1944   1.406       .  A
C1943     Br1958   1.932       .  S
C1944      C1947   1.483       .  S
C1944      C1945   1.405       .  A
C1945      C1946   1.404       .  A
C1945     Br1953   1.932       .  S
C1946     Br1957   1.928       .  S
C1947      C1948   1.406       .  A
C1947      C1952   1.408       .  A
C1948      C1949   1.407   1_655  A
C1948     Br1959   1.933       .  S
C1949      C1950   1.414       .  A
C1949     Br1955   1.926       .  S
C1950      C1951   1.414       .  A
C1951      C1952   1.409   1_455  A
C1951     Br1960   1.932       .  S
C1952     Br1956   1.930       .  S
C1961      C1962   1.413       .  A
C1961      C1966   1.413       .  A
C1962      C1963   1.407       .  A
C1962     Br1974   1.930       .  S
C1963      C1964   1.410       .  A
C1963     Br1978   1.932       .  S
C1964      C1967   1.489       .  S
C1964      C1965   1.410       .  A
C1965      C1966   1.409       .  A
C1965     Br1973   1.929       .  S
C1966     Br1977   1.931       .  S
C1967      C1968   1.410       .  A
C1967      C1972   1.410       .  A
C1968      C1969   1.409       .  A
C1968     Br1979   1.931       .  S
C1969      C1970   1.413       .  A
C1969     Br1975   1.931       .  S
C1970      C1971   1.412       .  A
C1971      C1972   1.409       .  A
C1971     Br1980   1.930       .  S
C1972     Br1976   1.931       .  S
C1981      C1982   1.410       .  A
C1981      C1986   1.408       .  A
C1982      C1983   1.406       .  A
C1982     Br1994   1.930       .  S
C1983      C1984   1.409       .  A
C1983     Br1998   1.928       .  S
C1984      C1987   1.488       .  S
C1984      C1985   1.412       .  A
C1985      C1986   1.409       .  A
C1985     Br1993   1.930       .  S
C1986     Br1997   1.928       .  S
C1987      C1988   1.405       .  A
C1987      C1992   1.405   1_655  A
C1988      C1989   1.412   1_655  A
C1988     Br1999   1.933       .  S
C1989      C1990   1.423       .  A
C1989     Br1995   1.927   1_455  S
C1990      C1991   1.427       .  A
C1991      C1992   1.408       .  A
C1991     Br2000   1.939       .  S
C1992     Br1996   1.934       .  S
C2001      C2002   1.415       .  A
C2001      C2006   1.413       .  A
C2002      C2003   1.408       .  A
C2002     Br2014   1.931       .  S
C2003      C2004   1.407       .  A
C2003     Br2018   1.931       .  S
C2004      C2007   1.482       .  S
C2004      C2005   1.408       .  A
C2005      C2006   1.407       .  A
C2005     Br2013   1.931       .  S
C2006     Br2017   1.932       .  S
C2007      C2008   1.406       .  A
C2007      C2012   1.407       .  A
C2008      C2009   1.404       .  A
C2008     Br2019   1.934       .  S
C2009      C2010   1.417       .  A
C2009     Br2015   1.931       .  S
C2010      C2011   1.418       .  A
C2011      C2012   1.410       .  A
C2011     Br2020   1.932       .  S
C2012     Br2016   1.930       .  S
C2021      C2022   1.412       .  A
C2021      C2026   1.413       .  A
C2022      C2023   1.408       .  A
C2022     Br2034   1.930       .  S
C2023      C2024   1.409       .  A
C2023     Br2038   1.930       .  S
C2024      C2027   1.485       .  S
C2024      C2025   1.409       .  A
C2025      C2026   1.408       .  A
C2025     Br2033   1.930       .  S
C2026     Br2037   1.931       .  S
C2027      C2028   1.408       .  A
C2027      C2032   1.404       .  A
C2028      C2029   1.414       .  A
C2028     Br2039   1.930       .  S
C2029      C2030   1.421       .  A
C2029     Br2035   1.933       .  S
C2030      C2031   1.423       .  A
C2031      C2032   1.404       .  A
C2031     Br2040   1.935       .  S
C2032     Br2036   1.937       .  S
C2041      C2042   1.418       .  A
C2041      C2046   1.419       .  A
C2042      C2043   1.406       .  A
C2042     Br2054   1.934       .  S
C2043      C2044   1.405       .  A
C2043     Br2058   1.932       .  S
C2044      C2047   1.477       .  S
C2044      C2045   1.405       .  A
C2045      C2046   1.405       .  A
C2045     Br2053   1.934       .  S
C2046     Br2057   1.930       .  S
C2047      C2048   1.406       .  A
C2047      C2052   1.407       .  A
C2048      C2049   1.405       .  A
C2048     Br2059   1.930       .  S
C2049      C2050   1.414       .  A
C2049     Br2055   1.931       .  S
C2050      C2051   1.413       .  A
C2051      C2052   1.404       .  A
C2051     Br2060   1.932       .  S
C2052     Br2056   1.931       .  S
C2061      C2062   1.412       .  A
C2061      C2066   1.416       .  A
C2062      C2063   1.407       .  A
C2062     Br2074   1.931       .  S
C2063      C2064   1.409       .  A
C2063     Br2078   1.930       .  S
C2064      C2067   1.482       .  S
C2064      C2065   1.407       .  A
C2065      C2066   1.405       .  A
C2065     Br2073   1.933       .  S
C2066     Br2077   1.935       .  S
C2067      C2068   1.410       .  A
C2067      C2072   1.410       .  A
C2068      C2069   1.404       .  A
C2068     Br2079   1.932       .  S
C2069      C2070   1.408       .  A
C2069     Br2075   1.929       .  S
C2070      C2071   1.409       .  A
C2071      C2072   1.407       .  A
C2071     Br2080   1.931       .  S
C2072     Br2076   1.928       .  S
C2081      C2082   1.410       .  A
C2081      C2086   1.410       .  A
C2082      C2083   1.404       .  A
C2082     Br2094   1.931       .  S
C2083      C2084   1.407       .  A
C2083     Br2098   1.928       .  S
C2084      C2087   1.475       .  S
C2084      C2085   1.408       .  A
C2085      C2086   1.403       .  A
C2085     Br2093   1.931       .  S
C2086     Br2097   1.931       .  S
C2087      C2088   1.404       .  A
C2087      C2092   1.404       .  A
C2088      C2089   1.407       .  A
C2088     Br2099   1.931       .  S
C2089      C2090   1.418       .  A
C2089     Br2095   1.931       .  S
C2090      C2091   1.419       .  A
C2091      C2092   1.404       .  A
C2091     Br2100   1.934       .  S
C2092     Br2096   1.934       .  S
C2101      C2102   1.411       .  A
C2101      C2106   1.410       .  A
C2102      C2103   1.403       .  A
C2102     Br2114   1.932       .  S
C2103      C2104   1.407       .  A
C2103     Br2118   1.930       .  S
C2104      C2107   1.481       .  S
C2104      C2105   1.410       .  A
C2105      C2106   1.408       .  A
C2105     Br2113   1.929       .  S
C2106     Br2117   1.930       .  S
C2107      C2108   1.407       .  A
C2107      C2112   1.403       .  A
C2108      C2109   1.410       .  A
C2108     Br2119   1.930       .  S
C2109      C2110   1.416       .  A
C2109     Br2115   1.931       .  S
C2110      C2111   1.418       .  A
C2111      C2112   1.403       .  A
C2111     Br2120   1.927       .  S
C2112     Br2116   1.933       .  S
C2121      C2122   1.408       .  A
C2121      C2126   1.409       .  A
C2122      C2123   1.403       .  A
C2122     Br2134   1.925       .  S
C2123      C2124   1.406       .  A
C2123     Br2138   1.930       .  S
C2124      C2127   1.472       .  S
C2124      C2125   1.408       .  A
C2125      C2126   1.403       .  A
C2125     Br2133   1.931       .  S
C2126     Br2137   1.930       .  S
C2127      C2128   1.402       .  A
C2127      C2132   1.403       .  A
C2128      C2129   1.399       .  A
C2128     Br2139   1.935       .  S
C2129      C2130   1.422       .  A
C2129     Br2135   1.938       .  S
C2130      C2131   1.426       .  A
C2131      C2132   1.407       .  A
C2131     Br2140   1.937       .  S
C2132     Br2136   1.933       .  S
C2141      C2142   1.411       .  A
C2141      C2146   1.412       .  A
C2142      C2143   1.404       .  A
C2142     Br2154   1.927       .  S
C2143      C2144   1.407       .  A
C2143     Br2158   1.931       .  S
C2144      C2147   1.481       .  S
C2144      C2145   1.409       .  A
C2145      C2146   1.407       .  A
C2145     Br2153   1.930       .  S
C2146     Br2157   1.931       .  S
C2147      C2148   1.408       .  A
C2147      C2152   1.407       .  A
C2148      C2149   1.407       .  A
C2148     Br2159   1.932       .  S
C2149      C2150   1.415       .  A
C2149     Br2155   1.932       .  S
C2150      C2151   1.414       .  A
C2151      C2152   1.404       .  A
C2151     Br2160   1.931       .  S
C2152     Br2156   1.932       .  S
C2161      C2162   1.418       .  A
C2161      C2166   1.417       .  A
C2162      C2163   1.412       .  A
C2162     Br2174   1.929       .  S
C2163      C2164   1.409       .  A
C2163     Br2178   1.932       .  S
C2164      C2167   1.492       .  S
C2164      C2165   1.408       .  A
C2165      C2166   1.411       .  A
C2165     Br2173   1.932       .  S
C2166     Br2177   1.930       .  S
C2167      C2168   1.411       .  A
C2167      C2172   1.409       .  A
C2168      C2169   1.412       .  A
C2168     Br2179   1.930       .  S
C2169      C2170   1.415       .  A
C2169     Br2175   1.930       .  S
C2170      C2171   1.415       .  A
C2171      C2172   1.408       .  A
C2171     Br2180   1.932       .  S
C2172     Br2176   1.931       .  S
C2181      C2182   1.417       .  A
C2181      C2186   1.418       .  A
C2182      C2183   1.410       .  A
C2182     Br2194   1.933       .  S
C2183      C2184   1.410       .  A
C2183     Br2198   1.933       .  S
C2184      C2187   1.491       .  S
C2184      C2185   1.407       .  A
C2185      C2186   1.410       .  A
C2185     Br2193   1.930       .  S
C2186     Br2197   1.931       .  S
C2187      C2188   1.412       .  A
C2187      C2192   1.410       .  A
C2188      C2189   1.409       .  A
C2188     Br2199   1.929       .  S
C2189      C2190   1.408       .  A
C2189     Br2195   1.928       .  S
C2190      C2191   1.410       .  A
C2191      C2192   1.408       .  A
C2191     Br2200   1.930       .  S
C2192     Br2196   1.928       .  S
C2201      C2202   1.415       .  A
C2201      C2206   1.416       .  A
C2202      C2203   1.408       .  A
C2202     Br2214   1.932       .  S
C2203      C2204   1.409       .  A
C2203     Br2218   1.932       .  S
C2204      C2207   1.491       .  S
C2204      C2205   1.409       .  A
C2205      C2206   1.411       .  A
C2205     Br2213   1.930       .  S
C2206     Br2217   1.929       .  S
C2207      C2208   1.409       .  A
C2207      C2212   1.410       .  A
C2208      C2209   1.410       .  A
C2208     Br2219   1.929       .  S
C2209      C2210   1.415       .  A
C2209     Br2215   1.931       .  S
C2210      C2211   1.413       .  A
C2211      C2212   1.408       .  A
C2211     Br2220   1.926       .  S
C2212     Br2216   1.931       .  S
C2221      C2222   1.412       .  A
C2221      C2226   1.410       .  A
C2222      C2223   1.404       .  A
C2222     Br2234   1.932       .  S
C2223      C2224   1.409       .  A
C2223     Br2238   1.933       .  S
C2224      C2227   1.480       .  S
C2224      C2225   1.409       .  A
C2225      C2226   1.406       .  A
C2225     Br2233   1.931       .  S
C2226     Br2237   1.925       .  S
C2227      C2228   1.409       .  A
C2227      C2232   1.406       .  A
C2228      C2229   1.407       .  A
C2228     Br2239   1.931       .  S
C2229      C2230   1.414       .  A
C2229     Br2235   1.930       .  S
C2230      C2231   1.416       .  A
C2231      C2232   1.402       .  A
C2231     Br2240   1.934       .  S
C2232     Br2236   1.933       .  S
C2241      C2242   1.409       .  A
C2241      C2246   1.408       .  A
C2242      C2243   1.406       .  A
C2242     Br2254   1.927       .  S
C2243      C2244   1.409       .  A
C2243     Br2258   1.930       .  S
C2244      C2247   1.478       .  S
C2244      C2245   1.409       .  A
C2245      C2246   1.402       .  A
C2245     Br2253   1.931       .  S
C2246     Br2257   1.931       .  S
C2247      C2248   1.406       .  A
C2247      C2252   1.406       .  A
C2248      C2249   1.404       .  A
C2248     Br2259   1.930       .  S
C2249      C2250   1.413       .  A
C2249     Br2255   1.931       .  S
C2250      C2251   1.420       .  A
C2251      C2252   1.405       .  A
C2251     Br2260   1.936       .  S
C2252     Br2256   1.934       .  S
C2261      C2262   1.404       .  A
C2261      C2266   1.407       .  A
C2262      C2263   1.403       .  A
C2262     Br2274   1.929       .  S
C2263      C2264   1.412       .  A
C2263     Br2278   1.931       .  S
C2264      C2267   1.476       .  S
C2264      C2265   1.409       .  A
C2265      C2266   1.401       .  A
C2265     Br2273   1.931       .  S
C2266     Br2277   1.933       .  S
C2267      C2268   1.405       .  A
C2267      C2272   1.404       .  A
C2268      C2269   1.404       .  A
C2268     Br2279   1.938       .  S
C2269      C2270   1.426       .  A
C2269     Br2275   1.939       .  S
C2270      C2271   1.424       .  A
C2271      C2272   1.406       .  A
C2271     Br2280   1.937       .  S
C2272     Br2276   1.933       .  S
C2281      C2282   1.408   1_455  A
C2281      C2286   1.408       .  A
C2282      C2283   1.403       .  A
C2282     Br2294   1.930       .  S
C2283      C2284   1.407       .  A
C2283     Br2298   1.930       .  S
C2284      C2287   1.474       .  S
C2284      C2285   1.408       .  A
C2285      C2286   1.403   1_655  A
C2285     Br2293   1.931       .  S
C2286     Br2297   1.931       .  S
C2287      C2288   1.402       .  A
C2287      C2292   1.402       .  A
C2288      C2289   1.405       .  A
C2288     Br2299   1.931       .  S
C2289      C2290   1.419       .  A
C2289     Br2295   1.929       .  S
C2290      C2291   1.428       .  A
C2291      C2292   1.404       .  A
C2291     Br2300   1.940       .  S
C2292     Br2296   1.936       .  S
C2301      C2302   1.412       .  A
C2301      C2306   1.411       .  A
C2302      C2303   1.407       .  A
C2302     Br2314   1.930       .  S
C2303      C2304   1.409       .  A
C2303     Br2318   1.930       .  S
C2304      C2307   1.486       .  S
C2304      C2305   1.411       .  A
C2305      C2306   1.407       .  A
C2305     Br2313   1.930       .  S
C2306     Br2317   1.933       .  S
C2307      C2308   1.408       .  A
C2307      C2312   1.410       .  A
C2308      C2309   1.407       .  A
C2308     Br2319   1.931       .  S
C2309      C2310   1.415   1_655  A
C2309     Br2315   1.933       .  S
C2310      C2311   1.410       .  A
C2311      C2312   1.409   1_455  A
C2311     Br2320   1.926       .  S
C2312     Br2316   1.931       .  S
C2321      C2322   1.412       .  A
C2321      C2326   1.417       .  A
C2322      C2323   1.402       .  A
C2322     Br2334   1.933       .  S
C2323      C2324   1.407       .  A
C2323     Br2338   1.932       .  S
C2324      C2327   1.478       .  S
C2324      C2325   1.406       .  A
C2325      C2326   1.407       .  A
C2325     Br2333   1.930       .  S
C2326     Br2337   1.931       .  S
C2327      C2328   1.408       .  A
C2327      C2332   1.407       .  A
C2328      C2329   1.407       .  A
C2328     Br2339   1.930       .  S
C2329      C2330   1.411       .  A
C2329     Br2335   1.929       .  S
C2330      C2331   1.412       .  A
C2331      C2332   1.405       .  A
C2331     Br2340   1.930       .  S
C2332     Br2336   1.933       .  S
C2341      C2342   1.414       .  A
C2341      C2346   1.409       .  A
C2342      C2343   1.411       .  A
C2342     Br2354   1.930       .  S
C2343      C2344   1.409       .  A
C2343     Br2358   1.929       .  S
C2344      C2347   1.483       .  S
C2344      C2345   1.407       .  A
C2345      C2346   1.403       .  A
C2345     Br2353   1.933       .  S
C2346     Br2357   1.922       .  S
C2347      C2348   1.407       .  A
C2347      C2352   1.406       .  A
C2348      C2349   1.409       .  A
C2348     Br2359   1.931       .  S
C2349      C2350   1.419       .  A
C2349     Br2355   1.933       .  S
C2350      C2351   1.417       .  A
C2351      C2352   1.406       .  A
C2351     Br2360   1.934       .  S
C2352     Br2356   1.932       .  S
C2361      C2362   1.410       .  A
C2361      C2366   1.410       .  A
C2362      C2363   1.407       .  A
C2362     Br2374   1.928       .  S
C2363      C2364   1.409       .  A
C2363     Br2378   1.930       .  S
C2364      C2367   1.479       .  S
C2364      C2365   1.408       .  A
C2365      C2366   1.403       .  A
C2365     Br2373   1.932       .  S
C2366     Br2377   1.932       .  S
C2367      C2368   1.408       .  A
C2367      C2372   1.408       .  A
C2368      C2369   1.407       .  A
C2368     Br2379   1.929       .  S
C2369      C2370   1.412       .  A
C2369     Br2375   1.930       .  S
C2370      C2371   1.410       .  A
C2371      C2372   1.402       .  A
C2371     Br2380   1.927       .  S
C2372     Br2376   1.932       .  S
C2381      C2382   1.409       .  A
C2381      C2386   1.409       .  A
C2382      C2383   1.405       .  A
C2382     Br2394   1.930       .  S
C2383      C2384   1.408       .  A
C2383     Br2398   1.931       .  S
C2384      C2387   1.481       .  S
C2384      C2385   1.409       .  A
C2385      C2386   1.407       .  A
C2385     Br2393   1.929       .  S
C2386     Br2397   1.930       .  S
C2387      C2388   1.401       .  A
C2387      C2392   1.401       .  A
C2388      C2389   1.410       .  A
C2388     Br2399   1.934       .  S
C2389      C2390   1.431       .  A
C2389     Br2395   1.938       .  S
C2390      C2391   1.435       .  A
C2391      C2392   1.407       .  A
C2391     Br2400   1.944       .  S
C2392     Br2396   1.938       .  S
C2401      C2402   1.414       .  A
C2401      C2406   1.413       .  A
C2402      C2403   1.405       .  A
C2402     Br2414   1.929       .  S
C2403      C2404   1.408       .  A
C2403     Br2418   1.933       .  S
C2404      C2407   1.488       .  S
C2404      C2405   1.410       .  A
C2405      C2406   1.411       .  A
C2405     Br2413   1.929       .  S
C2406     Br2417   1.929       .  S
C2407      C2408   1.410       .  A
C2407      C2412   1.409       .  A
C2408      C2409   1.409       .  A
C2408     Br2419   1.931       .  S
C2409      C2410   1.413       .  A
C2409     Br2415   1.931       .  S
C2410      C2411   1.413       .  A
C2411      C2412   1.407       .  A
C2411     Br2420   1.933       .  S
C2412     Br2416   1.931       .  S
C2421      C2422   1.416       .  A
C2421      C2426   1.419       .  A
C2422      C2423   1.403       .  A
C2422     Br2434   1.934       .  S
C2423      C2424   1.404       .  A
C2423     Br2438   1.932       .  S
C2424      C2427   1.477       .  S
C2424      C2425   1.406       .  A
C2425      C2426   1.408       .  A
C2425     Br2433   1.932       .  S
C2426     Br2437   1.932       .  S
C2427      C2428   1.406       .  A
C2427      C2432   1.408       .  A
C2428      C2429   1.404       .  A
C2428     Br2439   1.931       .  S
C2429      C2430   1.415       .  A
C2429     Br2435   1.933       .  S
C2430      C2431   1.411       .  A
C2431      C2432   1.405       .  A
C2431     Br2440   1.931       .  S
C2432     Br2436   1.930       .  S
C2441      C2442   1.419       .  A
C2441      C2446   1.413       .  A
C2442      C2443   1.410       .  A
C2442     Br2454   1.932       .  S
C2443      C2444   1.407       .  A
C2443     Br2458   1.932       .  S
C2444      C2447   1.481       .  S
C2444      C2445   1.407       .  A
C2445      C2446   1.404       .  A
C2445     Br2453   1.933       .  S
C2446     Br2457   1.931       .  S
C2447      C2448   1.409       .  A
C2447      C2452   1.408       .  A
C2448      C2449   1.405       .  A
C2448     Br2459   1.930       .  S
C2449      C2450   1.411       .  A
C2449     Br2455   1.933       .  S
C2450      C2451   1.412       .  A
C2451      C2452   1.405       .  A
C2451     Br2460   1.929       .  S
C2452     Br2456   1.931       .  S
C2461      C2462   1.415       .  A
C2461      C2466   1.416       .  A
C2462      C2463   1.409       .  A
C2462     Br2474   1.930       .  S
C2463      C2464   1.408       .  A
C2463     Br2478   1.932       .  S
C2464      C2467   1.483       .  S
C2464      C2465   1.406       .  A
C2465      C2466   1.406       .  A
C2465     Br2473   1.930       .  S
C2466     Br2477   1.934       .  S
C2467      C2468   1.406       .  A
C2467      C2472   1.409       .  A
C2468      C2469   1.404       .  A
C2468     Br2479   1.932       .  S
C2469      C2470   1.412       .  A
C2469     Br2475   1.927       .  S
C2470      C2471   1.413       .  A
C2471      C2472   1.410       .  A
C2471     Br2480   1.927       .  S
C2472     Br2476   1.929       .  S
C2481      C2482   1.412       .  A
C2481      C2486   1.410       .  A
C2482      C2483   1.403       .  A
C2482     Br2494   1.931       .  S
C2483      C2484   1.405       .  A
C2483     Br2498   1.930       .  S
C2484      C2487   1.476       .  S
C2484      C2485   1.409       .  A
C2485      C2486   1.406       .  A
C2485     Br2493   1.931       .  S
C2486     Br2497   1.929       .  S
C2487      C2488   1.408       .  A
C2487      C2492   1.404       .  A
C2488      C2489   1.404       .  A
C2488     Br2499   1.933       .  S
C2489      C2490   1.414       .  A
C2489     Br2495   1.933       .  S
C2490      C2491   1.416       .  A
C2491      C2492   1.404       .  A
C2491     Br2500   1.931       .  S
C2492     Br2496   1.930       .  S
C2501      C2502   1.416       .  A
C2501      C2506   1.415       .  A
C2502      C2503   1.405       .  A
C2502     Br2514   1.933       .  S
C2503      C2504   1.406       .  A
C2503     Br2518   1.931       .  S
C2504      C2507   1.483       .  S
C2504      C2505   1.408       .  A
C2505      C2506   1.409       .  A
C2505     Br2513   1.930       .  S
C2506     Br2517   1.932       .  S
C2507      C2508   1.408       .  A
C2507      C2512   1.408       .  A
C2508      C2509   1.405       .  A
C2508     Br2519   1.933       .  S
C2509      C2510   1.414       .  A
C2509     Br2515   1.933       .  S
C2510      C2511   1.416       .  A
C2511      C2512   1.410       .  A
C2511     Br2520   1.931       .  S
C2512     Br2516   1.929       .  S
C2521      C2522   1.413       .  A
C2521      C2526   1.412       .  A
C2522      C2523   1.404       .  A
C2522     Br2534   1.928       .  S
C2523      C2524   1.406       .  A
C2523     Br2538   1.932       .  S
C2524      C2527   1.479       .  S
C2524      C2525   1.408       .  A
C2525      C2526   1.407       .  A
C2525     Br2533   1.930       .  S
C2526     Br2537   1.931       .  S
C2527      C2528   1.405       .  A
C2527      C2532   1.402       .  A
C2528      C2529   1.409   1_655  A
C2528     Br2539   1.933   1_655  S
C2529      C2530   1.422       .  A
C2529     Br2535   1.933       .  S
C2530      C2531   1.421   1_455  A
C2531      C2532   1.405       .  A
C2531     Br2540   1.924       .  S
C2532     Br2536   1.935       .  S
C2541      C2542   1.407       .  A
C2541      C2546   1.410       .  A
C2542      C2543   1.404       .  A
C2542     Br2554   1.923       .  S
C2543      C2544   1.410       .  A
C2543     Br2558   1.929       .  S
C2544      C2547   1.488       .  S
C2544      C2545   1.414       .  A
C2545      C2546   1.407       .  A
C2545     Br2553   1.932       .  S
C2546     Br2557   1.930       .  S
C2547      C2548   1.412       .  A
C2547      C2552   1.412       .  A
C2548      C2549   1.408   1_655  A
C2548     Br2559   1.930       .  S
C2549      C2550   1.409       .  A
C2549     Br2555   1.927       .  S
C2550      C2551   1.408       .  A
C2551      C2552   1.405   1_455  A
C2551     Br2560   1.925       .  S
C2552     Br2556   1.931       .  S
C2561      C2562   1.411       .  A
C2561      C2566   1.411       .  A
C2562      C2563   1.408       .  A
C2562     Br2574   1.930       .  S
C2563      C2564   1.410       .  A
C2563     Br2578   1.930       .  S
C2564      C2567   1.490       .  S
C2564      C2565   1.411       .  A
C2565      C2566   1.409       .  A
C2565     Br2573   1.930       .  S
C2566     Br2577   1.928       .  S
C2567      C2568   1.411       .  A
C2567      C2572   1.410       .  A
C2568      C2569   1.407       .  A
C2568     Br2579   1.932       .  S
C2569      C2570   1.410       .  A
C2569     Br2575   1.928       .  S
C2570      C2571   1.415       .  A
C2571      C2572   1.411       .  A
C2571     Br2580   1.926       .  S
C2572     Br2576   1.931       .  S
C2581      C2582   1.415       .  A
C2581      C2586   1.414       .  A
C2582      C2583   1.411       .  A
C2582     Br2594   1.932       .  S
C2583      C2584   1.409       .  A
C2583     Br2598   1.930       .  S
C2584      C2587   1.494       .  S
C2584      C2585   1.410       .  A
C2585      C2586   1.412       .  A
C2585     Br2593   1.930       .  S
C2586     Br2597   1.930       .  S
C2587      C2588   1.408       .  A
C2587      C2592   1.410       .  A
C2588      C2589   1.409       .  A
C2588     Br2599   1.933       .  S
C2589      C2590   1.419       .  A
C2589     Br2595   1.932       .  S
C2590      C2591   1.418       .  A
C2591      C2592   1.413       .  A
C2591     Br2600   1.932       .  S
C2592     Br2596   1.929       .  S
C2601      C2602   1.421       .  A
C2601      C2606   1.420       .  A
C2602      C2603   1.408       .  A
C2602     Br2614   1.930       .  S
C2603      C2604   1.406       .  A
C2603     Br2618   1.934       .  S
C2604      C2607   1.486       .  S
C2604      C2605   1.406       .  A
C2605      C2606   1.408       .  A
C2605     Br2613   1.929       .  S
C2606     Br2617   1.935       .  S
C2607      C2608   1.410       .  A
C2607      C2612   1.409       .  A
C2608      C2609   1.408       .  A
C2608     Br2619   1.931       .  S
C2609      C2610   1.410       .  A
C2609     Br2615   1.929       .  S
C2610      C2611   1.412       .  A
C2611      C2612   1.409       .  A
C2611     Br2620   1.929       .  S
C2612     Br2616   1.929       .  S
C2621      C2622   1.423       .  A
C2621      C2626   1.420       .  A
C2622      C2623   1.409       .  A
C2622     Br2634   1.935       .  S
C2623      C2624   1.405       .  A
C2623     Br2638   1.934       .  S
C2624      C2627   1.481       .  S
C2624      C2625   1.404       .  A
C2625      C2626   1.406       .  A
C2625     Br2633   1.932       .  S
C2626     Br2637   1.932       .  S
C2627      C2628   1.408       .  A
C2627      C2632   1.408       .  A
C2628      C2629   1.405       .  A
C2628     Br2639   1.931       .  S
C2629      C2630   1.412       .  A
C2629     Br2635   1.932       .  S
C2630      C2631   1.412       .  A
C2631      C2632   1.407       .  A
C2631     Br2640   1.931       .  S
C2632     Br2636   1.929       .  S
