geometry optimzed in LAMMPS
_audit_creation_date              2020-11-30 
_audit_creation_method            'lammps2cif' 
_symmetry_space_group_name_H-M    'P1' 
_symmetry_Int_Tables_number       1 
_symmetry_cell_setting            triclinic 
loop_ 
_symmetry_equiv_pos_as_xyz 
  x,y,z 
_cell_length_a                    36.99714881 
_cell_length_b                    38.192517796795826 
_cell_length_c                    28.63942979618375 
_cell_angle_alpha                 90.46153942198968 
_cell_angle_beta                  89.60350050664904 
_cell_angle_gamma                 119.65922010087878 
loop_ 
_atom_site_label 
_atom_site_type_symbol 
_atom_site_fract_x 
_atom_site_fract_y 
_atom_site_fract_z 
_atom_site_charge 
O1          O  0.14601576  0.26412969  0.94302819    -0.84500
O2          O  0.22744431  0.30922193  0.97486025    -0.81500
C3          C  0.24077052  0.33691733  0.94516471     0.99000
O4          O  0.22310064  0.35754135  0.94136155    -0.81600
O5          O  0.18045458  0.39760355  0.95690345    -0.84200
C6          C  0.14795058  0.38139911  0.93234391     1.03500
O7          O  0.11915052  0.34623845  0.94086925    -0.77000
O8          O  0.08933376  0.26682284  0.96044886    -0.77200
C9          C  0.10908294  0.25525470  0.93346741     1.03400
O10         O  0.11783683  0.24590292  0.03629621    -0.84500
O11         O  0.19748432  0.30105785  0.06786825    -0.81600
C12         C  0.23139426  0.33398180  0.07129070     0.99000
O13         O  0.24093482  0.36052736  0.03998250    -0.81600
O14         O  0.19106922  0.39355266  0.05486645    -0.84200
C15         C  0.15670704  0.39204378  0.06212326     1.03500
O16         O  0.12440718  0.36758224  0.03924640    -0.77000
O17         O  0.09693516  0.28719279  0.06066452    -0.77200
C18         C  0.09717990  0.25444060  0.06454987     1.03400
Cr19       Cr  0.17120727  0.28326998  0.00529527     1.93700
Cr20       Cr  0.20571186  0.37362932  0.99841402     1.93200
Cr21       Cr  0.11117853  0.31738667  0.00075608     1.39100
O22         O  0.16236696  0.32503331  0.00211215    -1.22200
O23         O  0.29435990  0.19716343  0.05801074    -0.84500
O24         O  0.37647008  0.24538870  0.03587784    -0.81500
C25         C  0.39280782  0.23532770  0.06799017     0.99000
O26         O  0.39225484  0.20212014  0.06482422    -0.81600
O27         O  0.36688305  0.12359845  0.03835385    -0.84200
C28         C  0.33712326  0.10444233  0.06635372     1.03500
O29         O  0.30412923  0.10588553  0.06258352    -0.77000
O30         O  0.25134404  0.13392535  0.03932268    -0.77200
C31         C  0.26080048  0.16480078  0.06423897     1.03400
O32         O  0.27218381  0.18434602  0.96222797    -0.84500
O33         O  0.35681882  0.22825133  0.93915081    -0.81600
C34         C  0.39518088  0.23954081  0.93812575     0.99000
O35         O  0.41064341  0.22651584  0.96795937    -0.81600
O36         O  0.37512730  0.14622231  0.94308144    -0.84200
C37         C  0.34712172  0.11013915  0.93647709     1.03500
O38         O  0.31517787  0.09349804  0.96290598    -0.77000
O39         O  0.26433076  0.12513152  0.94335017    -0.77200
C40         C  0.25444903  0.15203428  0.93872126     1.03400
Cr41       Cr  0.32535141  0.21048581  0.99867327     1.93700
Cr42       Cr  0.38230759  0.17417321  0.00345519     1.93200
Cr43       Cr  0.28739720  0.11830983  0.00202043     1.39100
O44         O  0.33135176  0.16744642  0.00070248    -1.22200
C45         C  0.50166493  0.46156458  0.25054088     0.03100
C46         C  0.46249153  0.45999564  0.25096082     0.03100
C47         C  0.46010405  0.49624220  0.24756264     0.03100
C48         C  0.49742159  0.03432481  0.24906611     0.03100
C49         C  0.03692788  0.03579086  0.24921746     0.03100
C50         C  0.03897840  0.49918775  0.24809856     0.03100
C51         C  0.37034018  0.00937208  0.19967723     0.04000
C52         C  0.41017169  0.01331099  0.20512501    -0.12200
C53         C  0.41851865  0.49427678  0.24261436     0.01500
C54         C  0.38768662  0.47447972  0.27678006    -0.10700
C55         C  0.34806057  0.47020060  0.27209599     0.04000
C56         C  0.33892041  0.48583440  0.23262278    -0.10100
H57         H  0.43449101  0.03104527  0.18028702     0.09600
H58         H  0.39465509  0.46267155  0.30759075     0.07100
H59         H  0.30799622  0.48197290  0.22916806     0.06900
C60         C  0.13075930  0.48322021  0.21186474     0.04000
C61         C  0.09123001  0.48094420  0.21244076    -0.12200
C62         C  0.08026588  0.50022559  0.24779074     0.01500
C63         C  0.10907969  0.02122119  0.28355727    -0.10700
C64         C  0.14786435  0.02304018  0.28487935     0.04000
C65         C  0.15786149  0.50379537  0.24894350    -0.10100
H66         H  0.06908630  0.46461708  0.18506451     0.09600
H67         H  0.10107356  0.03641458  0.31032010     0.07100
H68         H  0.18801804  0.50640129  0.24954205     0.06900
C69         C  0.14184727  0.12449217  0.21367146     0.04000
C70         C  0.10571210  0.08647205  0.21394787    -0.12200
C71         C  0.07611656  0.07587679  0.24996175     0.01500
C72         C  0.08329257  0.10397003  0.28597230    -0.10700
C73         C  0.11945693  0.14212241  0.28624705     0.04000
C74         C  0.14828714  0.15163164  0.25004125    -0.10100
H75         H  0.10041288  0.06522532  0.18597290     0.09600
H76         H  0.06038296  0.09620071  0.31343923     0.07100
H77         H  0.17621249  0.18077410  0.25001692     0.06900
C78         C  0.01360562  0.13745990  0.21265570     0.04000
C79         C  0.01544946  0.10154951  0.21393536    -0.12200
C80         C  0.49504314  0.07278420  0.24917841     0.01500
C81         C  0.47309162  0.08110956  0.28435535    -0.10700
C82         C  0.47213480  0.11780235  0.28448095     0.04000
C83         C  0.49164851  0.14457863  0.24768310    -0.10100
H84         H  0.03287743  0.09583931  0.18741632     0.09600
H85         H  0.45751761  0.05940825  0.31188160     0.07100
H86         H  0.49061005  0.17220651  0.24670390     0.06900
C87         C  0.37209093  0.36346980  0.29897418     0.04000
C88         C  0.41106313  0.39864687  0.29615305    -0.12200
C89         C  0.42356390  0.41982352  0.25425174     0.01500
C90         C  0.39968224  0.40186649  0.21458730    -0.10700
C91         C  0.35788933  0.37017950  0.21705165     0.04000
C92         C  0.34426088  0.35267833  0.26134450    -0.10100
H93         H  0.43226401  0.40875609  0.32542689     0.09600
H94         H  0.41524012  0.41341118  0.18238222     0.07100
H95         H  0.31253437  0.32929103  0.26705241     0.06900
C96         C  0.00689363  0.37046023  0.29472049     0.04000
C97         C  0.48691847  0.34348213  0.25762715    -0.12200
C98         C  0.47991460  0.35692763  0.21434767     0.01500
C99         C  0.48961575  0.39764073  0.21214641    -0.10700
C100        C  0.50241827  0.42276303  0.25166761     0.04000
C101        C  0.01298013  0.40973366  0.29229959    -0.10100
H102        H  0.47886592  0.31241381  0.26238054     0.09600
H103        H  0.48785477  0.41119465  0.18026417     0.07100
H104        H  0.02656574  0.43025612  0.32153806     0.06900
O105        O  0.26949016  0.14970160  0.56105705    -0.84500
O106        O  0.31705877  0.23114186  0.54378916    -0.81500
C107        C  0.34822102  0.24462422  0.57054853     0.99000
O108        O  0.37609603  0.23508509  0.56419486    -0.81600
O109        O  0.41177688  0.18893945  0.53901810    -0.84200
C110        C  0.39451397  0.15822077  0.56485266     1.03500
O111        O  0.35654258  0.13269618  0.56010467    -0.77000
O112        O  0.27411446  0.09814123  0.53560029    -0.77200
C113        C  0.25930391  0.11307575  0.56423577     1.03400
O114        O  0.25504654  0.13315974  0.46290090    -0.84500
O115        O  0.30854705  0.21415308  0.44631734    -0.81600
C116        C  0.34234493  0.24696431  0.44333998     0.99000
O117        O  0.37286396  0.25383246  0.46889953    -0.81600
O118        O  0.40136279  0.20101967  0.44199747    -0.84200
C119        C  0.40141017  0.16807572  0.43678693     1.03500
O120        O  0.38010881  0.13898312  0.46394640    -0.77000
O121        O  0.29814457  0.11256169  0.43976512    -0.77200
C122        C  0.26429059  0.11268242  0.43521878     1.03400
Cr123      Cr  0.29109854  0.18136967  0.50333577     1.93700
Cr124      Cr  0.38635942  0.21633241  0.50327614     1.93200
Cr125      Cr  0.32786944  0.12475401  0.49996986     1.39100
O126        O  0.33509691  0.17427799  0.50187700    -1.22200
O127        O  0.18743030  0.29196252  0.43629960    -0.84500
O128        O  0.24616177  0.37073798  0.45620673    -0.81500
C129        C  0.23781198  0.39207013  0.42957733     0.99000
O130        O  0.20621038  0.39575188  0.43706195    -0.81600
O131        O  0.12515675  0.37191864  0.46139656    -0.84200
C132        C  0.10242141  0.34250599  0.43488262     1.03500
O133        O  0.10002953  0.30869448  0.44004966    -0.77000
O134        O  0.12408007  0.25340030  0.46257396    -0.77200
C135        C  0.15242831  0.26036224  0.43330056     1.03400
O136        O  0.17933433  0.27209680  0.53341533    -0.84500
O137        O  0.23205784  0.35314673  0.55506528    -0.81600
C138        C  0.24258678  0.38983776  0.56148389     0.99000
O139        O  0.22963464  0.40660182  0.53355265    -0.81600
O140        O  0.14818455  0.37590988  0.55885172    -0.84200
C141        C  0.11034392  0.35060952  0.56499059     1.03500
O142        O  0.09139126  0.32160266  0.53690055    -0.77000
O143        O  0.12343836  0.27204693  0.55893554    -0.77200
C144        C  0.14869633  0.25895069  0.56128559     1.03400
Cr145      Cr  0.20810663  0.32289108  0.49552964     1.93700
Cr146      Cr  0.17636677  0.38348936  0.49768549     1.93200
Cr147      Cr  0.11408008  0.29239228  0.49947581     1.39100
O148        O  0.16626791  0.33297041  0.49734903    -1.22200
C149        C  0.50207287  0.46143680  0.75208457     0.03100
C150        C  0.46435313  0.46283338  0.75268740     0.03100
C151        C  0.46487246  0.50053140  0.75117768     0.03100
C152        C  0.50419658  0.03727777  0.74933793     0.03100
C153        C  0.04199899  0.03550970  0.74709881     0.03100
C154        C  0.04091585  0.99768005  0.74898613     0.03100
C155        C  0.12895113  0.47844549  0.78705562     0.04000
C156        C  0.08998085  0.47694279  0.78445039    -0.12200
C157        C  0.08085189  0.99631119  0.74860731     0.01500
C158        C  0.10937230  0.01398758  0.71205717    -0.10700
C159        C  0.14808455  0.01592213  0.71334294     0.04000
C160        C  0.15867213  0.00033922  0.75190077    -0.10100
H161        H  0.06599959  0.46003424  0.80981169     0.09600
H162        H  0.10195801  0.02738116  0.68308332     0.07100
H163        H  0.19035159  0.00637117  0.75452946     0.06900
C164        C  0.38047520  0.02839929  0.78115658     0.04000
C165        C  0.35150531  0.00735713  0.74505515    -0.12200
C166        C  0.35762832  0.48248649  0.71330534     0.01500
C167        C  0.39418653  0.47991720  0.71606678    -0.10700
C168        C  0.42455251  0.00154414  0.75014664     0.04000
C169        C  0.41757635  0.02622606  0.78160379    -0.10100
H170        H  0.32166839  0.00606744  0.74463597     0.09600
H171        H  0.39958363  0.46192183  0.69060283     0.07100
H172        H  0.44144831  0.04374783  0.80688716     0.06900
C173        C  0.48820628  0.12333464  0.70448744     0.04000
C174        C  0.01798905  0.15536065  0.73266233    -0.12200
C175        C  0.03494209  0.14789507  0.77260093     0.01500
C176        C  0.02935113  0.10903589  0.77911813    -0.10700
C177        C  0.00610887  0.07784854  0.74699820     0.04000
C178        C  0.48342397  0.08482135  0.71272492    -0.10100
H179        H  0.02690251  0.18630507  0.72549471     0.09600
H180        H  0.04296619  0.10309362  0.80922401     0.07100
H181        H  0.46177553  0.05918276  0.69364056     0.06900
C182        C  0.13979672  0.12777023  0.78874354     0.04000
C183        C  0.10835940  0.08731155  0.78432303    -0.12200
C184        C  0.08286776  0.07412197  0.74518197     0.01500
C185        C  0.09414860  0.09941378  0.70616653    -0.10700
C186        C  0.12318233  0.14129455  0.70937154     0.04000
C187        C  0.14418254  0.15490174  0.75286095    -0.10100
H188        H  0.10285174  0.06577982  0.81159072     0.09600
H189        H  0.07973442  0.08508601  0.67392077     0.07100
H190        H  0.16389590  0.18643639  0.76003636     0.06900
C191        C  0.02472492  0.37721960  0.71966072     0.04000
C192        C  0.02065553  0.41174056  0.71713759    -0.12200
C193        C  0.00120449  0.42151226  0.75308960     0.01500
C194        C  0.48257762  0.39406404  0.79027551    -0.10700
C195        C  0.48618900  0.35893385  0.79357821     0.04000
C196        C  0.00929834  0.35241470  0.75887719    -0.10100
H197        H  0.03371089  0.43174791  0.68754766     0.09600
H198        H  0.46547944  0.40034871  0.81653303     0.07100
H199        H  0.01441557  0.32702808  0.76160226     0.06900
C200        C  0.37759010  0.35653831  0.72490523     0.04000
C201        C  0.41262684  0.39508143  0.72019198    -0.12200
C202        C  0.42437548  0.42402785  0.75600952     0.01500
C203        C  0.40091367  0.41428607  0.79726209    -0.10700
C204        C  0.36573397  0.37604922  0.80321384     0.04000
C205        C  0.35440700  0.34729864  0.76682925    -0.10100
H206        H  0.43163960  0.40239799  0.68895663     0.09600
H207        H  0.41066991  0.43634602  0.82523759     0.07100
H208        H  0.32635087  0.31839063  0.77034733     0.06900
C209        C  0.13013756  0.17027081  0.66867792    -0.04500
C210        C  0.16988337  0.20432697  0.65832899    -0.01600
C211        C  0.17589069  0.22683148  0.61748340     0.03400
C212        C  0.14202332  0.22713100  0.59605246    -0.04500
C213        C  0.10190841  0.19594942  0.60757879    -0.01600
C214        C  0.09700030  0.16507623  0.63847458     0.03400
C215        C  0.20343482  0.22338731  0.69138243     0.38000
C216        C  0.06572920  0.19325028  0.58458174     0.38000
C217        C  0.05977246  0.12694415  0.63262165     0.36400
C218        C  0.21743291  0.25014115  0.59867669     0.36400
N219        N  0.03161389  0.09582415  0.62403592    -0.38400
N220        N  0.25057376  0.26828332  0.58343199    -0.38400
N221        N  0.03681099  0.19124189  0.56669371    -0.37800
N222        N  0.23056362  0.24408135  0.71584318    -0.37800
C223        C  0.08731459  0.35525465  0.60470299    -0.04500
C224        C  0.05225405  0.35969394  0.59650225    -0.01600
C225        C  0.03042191  0.36441297  0.63426591     0.03400
C226        C  0.04480080  0.36694754  0.68053863    -0.04500
C227        C  0.07884506  0.36060287  0.68874708    -0.01600
C228        C  0.10007560  0.35501520  0.65092740     0.03400
C229        C  0.04068177  0.36294087  0.54912817     0.38000
C230        C  0.09152546  0.35850813  0.73594882     0.38000
C231        C  0.13504254  0.34888335  0.65979869     0.36400
C232        C  0.99229809  0.36529266  0.62536375     0.36400
N233        N  0.16285692  0.34403680  0.66761130    -0.38400
N234        N  0.96178030  0.36567136  0.61800496    -0.38400
N235        N  0.10053661  0.35513862  0.77357380    -0.37800
N236        N  0.03178708  0.36663455  0.51157925    -0.37800
C237        C  0.32560785  0.45890791  0.67670709    -0.04500
C238        C  0.31794303  0.47884604  0.64027663    -0.01600
C239        C  0.29135100  0.45687672  0.60281382     0.03400
C240        C  0.27062607  0.41391995  0.60165715    -0.04500
C241        C  0.27475229  0.39426924  0.64134902    -0.01600
C242        C  0.30171215  0.41651984  0.67835714     0.03400
C243        C  0.33475558  0.02212353  0.64285785     0.38000
C244        C  0.24835699  0.35128166  0.64736918     0.38000
C245        C  0.30010524  0.39514929  0.72029271     0.36400
C246        C  0.28473656  0.47954106  0.56698312     0.36400
N247        N  0.29423141  0.37493126  0.75240335    -0.38400
N248        N  0.27988432  0.49903270  0.53984164    -0.38400
N249        N  0.22699310  0.31743437  0.65494579    -0.37800
N250        N  0.34624517  0.05621883  0.64588742    -0.37800
C251        C  0.41956278  0.15015663  0.59862649    -0.04500
C252        C  0.42177070  0.11467623  0.59434089    -0.01600
C253        C  0.44416560  0.10542821  0.62715682     0.03400
C254        C  0.46238792  0.13057125  0.66781072    -0.04500
C255        C  0.45534015  0.16402922  0.67324952    -0.01600
C256        C  0.43890429  0.17613928  0.63646616     0.03400
C257        C  0.40053891  0.08721959  0.55555137     0.38000
C258        C  0.45937963  0.18312010  0.71836693     0.38000
C259        C  0.44250852  0.21571531  0.63717963     0.36400
C260        C  0.44504639  0.06854836  0.61773664     0.36400
N261        N  0.44653720  0.24774602  0.63630182    -0.38400
N262        N  0.44387302  0.03838239  0.60866995    -0.38400
N263        N  0.46264965  0.19784429  0.75470946    -0.37800
N264        N  0.38352453  0.06530244  0.52493868    -0.37800
C265        C  0.23024291  0.08730648  0.60205905    -0.04500
C266        C  0.22910272  0.10462456  0.64565744    -0.01600
C267        C  0.20714398  0.07971882  0.68345844     0.03400
C268        C  0.17902469  0.03881042  0.67622307    -0.04500
C269        C  0.17761026  0.02142225  0.63235298    -0.01600
C270        C  0.20466462  0.04494627  0.59609036     0.03400
C271        C  0.24712976  0.14775619  0.65054731     0.38000
C272        C  0.14910060  0.47906455  0.62559126     0.38000
C273        C  0.20415567  0.02539036  0.55226173     0.36400
C274        C  0.21601299  0.09424108  0.73089044     0.36400
N275        N  0.20342404  0.00936013  0.51751534    -0.38400
N276        N  0.22275905  0.10177091  0.77008105    -0.38400
N277        N  0.12608487  0.44525417  0.61963071    -0.37800
N278        N  0.26005661  0.18220914  0.65140942    -0.37800
C279        C  0.36595676  0.32625217  0.68568717    -0.04500
C280        C  0.36029896  0.33595838  0.63964354    -0.01600
C281        C  0.35101214  0.30795125  0.60274019     0.03400
C282        C  0.35214304  0.27192124  0.61003861    -0.04500
C283        C  0.35665974  0.26165732  0.65584664    -0.01600
C284        C  0.36142441  0.28770868  0.69342386     0.03400
C285        C  0.36375686  0.37465271  0.62961351     0.38000
C286        C  0.35355344  0.22284016  0.66486930     0.38000
C287        C  0.35985289  0.27339856  0.73993955     0.36400
C288        C  0.33773190  0.31549498  0.55834516     0.36400
N289        N  0.35678832  0.25968554  0.77638688    -0.38400
N290        N  0.32481848  0.32142329  0.52444067    -0.38400
N291        N  0.35053976  0.19174684  0.67226279    -0.37800
N292        N  0.36738022  0.40566147  0.62036696    -0.37800
C293        C  0.02994982  0.36081628  0.33047118    -0.04500
C294        C  0.01023025  0.33606863  0.36913180    -0.01600
C295        C  0.03353211  0.32820238  0.40215126     0.03400
C296        C  0.07731594  0.34763930  0.39827644    -0.04500
C297        C  0.09677825  0.37073452  0.35822431    -0.01600
C298        C  0.07252302  0.37475639  0.32327448     0.03400
C299        C  0.96582094  0.31660019  0.37308198     0.38000
C300        C  0.14128442  0.38877379  0.35191149     0.38000
C301        C  0.08845371  0.38616040  0.27657964     0.36400
C302        C  0.01244746  0.29955643  0.43938798     0.36400
N303        N  0.09662189  0.39134438  0.23740634    -0.38400
N304        N  0.99564119  0.27642477  0.46884246    -0.38400
N305        N  0.17687028  0.40329673  0.34696425    -0.37800
N306        N  0.93009922  0.30017828  0.37568417    -0.37800
C307        C  0.36223692  0.33428590  0.33753508    -0.04500
C308        C  0.34932938  0.29369025  0.32625159    -0.01600
C309        C  0.33588892  0.26476445  0.36161284     0.03400
C310        C  0.34686573  0.27725669  0.40826526    -0.04500
C311        C  0.36715934  0.31908731  0.41879576    -0.01600
C312        C  0.36936889  0.34651926  0.38474882     0.03400
C313        C  0.35790453  0.28318900  0.28028627     0.38000
C314        C  0.39165056  0.33492434  0.46082210     0.38000
C315        C  0.38007541  0.38717768  0.39827019     0.36400
C316        C  0.31622868  0.22255713  0.34931954     0.36400
N317        N  0.38819452  0.41953253  0.40900689    -0.38400
N318        N  0.30069495  0.18860153  0.34073624    -0.38400
N319        N  0.41292270  0.34822238  0.49312735    -0.37800
N320        N  0.36669674  0.27540445  0.24435706    -0.37800
C321        C  0.45420805  0.13105154  0.32409253    -0.04500
C322        C  0.43173043  0.15171781  0.31509832    -0.01600
C323        C  0.42102843  0.16982659  0.35185677     0.03400
C324        C  0.42555603  0.16174544  0.39859564    -0.04500
C325        C  0.44918957  0.14270274  0.40797150    -0.01600
C326        C  0.46467491  0.12880587  0.37109909     0.03400
C327        C  0.41904771  0.15468260  0.26814144     0.38000
C328        C  0.46129310  0.14101386  0.45548364     0.38000
C329        C  0.49333255  0.11441167  0.38186604     0.36400
C330        C  0.40638540  0.19763575  0.34099647     0.36400
N331        N  0.01634069  0.10318363  0.39073251    -0.38400
N332        N  0.39555951  0.22020677  0.33086716    -0.38400
N333        N  0.47241266  0.14026881  0.49289613    -0.37800
N334        N  0.40991596  0.15822189  0.23064936    -0.37800
C335        C  0.12769329  0.17253587  0.32415935    -0.04500
C336        C  0.13908379  0.21296498  0.31302545    -0.01600
C337        C  0.14550347  0.24102428  0.34876916     0.03400
C338        C  0.14421062  0.23033165  0.39591109    -0.04500
C339        C  0.13369971  0.19051141  0.40737915    -0.01600
C340        C  0.12547554  0.16174586  0.37178151     0.03400
C341        C  0.14555552  0.22665579  0.26498190     0.38000
C342        C  0.13163612  0.17913980  0.45599984     0.38000
C343        C  0.11672008  0.12159354  0.38450538     0.36400
C344        C  0.15108336  0.28030555  0.33697809     0.36400
N345        N  0.10945739  0.08952936  0.39484804    -0.38400
N346        N  0.15503300  0.31136999  0.32731364    -0.38400
N347        N  0.12981185  0.16996648  0.49473126    -0.37800
N348        N  0.15208040  0.23810608  0.22687342    -0.37800
C349        C  0.17791590  0.04492442  0.32393063    -0.04500
C350        C  0.16405473  0.04012001  0.37100441    -0.01600
C351        C  0.19150876  0.06408434  0.40679134     0.03400
C352        C  0.23458053  0.08812475  0.39752213    -0.04500
C353        C  0.24906815  0.08857662  0.35172419    -0.01600
C354        C  0.22088602  0.07036734  0.31472275     0.03400
C355        C  0.12225543  0.00904107  0.38339593     0.38000
C356        C  0.29307101  0.10750477  0.34210008     0.38000
C357        C  0.23658285  0.07908386  0.26721583     0.36400
C358        C  0.17516185  0.06304684  0.45324841     0.36400
N359        N  0.24854577  0.08539924  0.22909898    -0.38400
N360        N  0.16152021  0.06247590  0.48990295    -0.38400
N361        N  0.32810780  0.12183894  0.33392193    -0.37800
N362        N  0.08903776  0.98407040  0.39329745    -0.37800
C363        C  0.26548990  0.41277826  0.38902022    -0.04500
C364        C  0.26939815  0.39001709  0.35223325    -0.01600
C365        C  0.29036105  0.40928999  0.31096294     0.03400
C366        C  0.31712169  0.45117595  0.31053460    -0.04500
C367        C  0.31614874  0.47421026  0.34882667    -0.01600
C368        C  0.28717542  0.45528511  0.38544633     0.03400
C369        C  0.25378519  0.34717984  0.35662733     0.38000
C370        C  0.34496893  0.01678323  0.35068231     0.38000
C371        C  0.27949187  0.47979003  0.41835143     0.36400
C372        C  0.27924664  0.38668830  0.26784956     0.36400
N373        N  0.27295417  0.50032437  0.44269546    -0.38400
N374        N  0.26714569  0.36817619  0.23378532    -0.38400
N375        N  0.36834513  0.05091601  0.35363901    -0.37800
N376        N  0.24364371  0.31333940  0.35926872    -0.37800
C377        C  0.36980829  0.04792095  0.82170707    -0.04500
C378        C  0.34651288  0.06814124  0.81520081    -0.01600
C379        C  0.33504222  0.08385072  0.85395712     0.03400
C380        C  0.35283141  0.08678618  0.89805858    -0.04500
C381        C  0.37852302  0.06974100  0.90426699    -0.01600
C382        C  0.38260344  0.04634702  0.86833474     0.03400
C383        C  0.33583459  0.07542817  0.76911198     0.38000
C384        C  0.40324544  0.07854638  0.94634909     0.38000
C385        C  0.39876564  0.02001216  0.88095441     0.36400
C386        C  0.30540147  0.09777494  0.84818306     0.36400
N387        N  0.41152061  0.99901480  0.89163603    -0.38400
N388        N  0.28101105  0.10798123  0.84356109    -0.38400
N389        N  0.42370138  0.08623936  0.97939008    -0.37800
N390        N  0.32661708  0.08207914  0.73311950    -0.37800
C391        C  0.36187010  0.03383446  0.16461569    -0.04500
C392        C  0.34721087  0.05995377  0.18079236    -0.01600
C393        C  0.33965109  0.08376376  0.14914909     0.03400
C394        C  0.34061861  0.07774223  0.10090879    -0.04500
C395        C  0.34924255  0.04805913  0.08481861    -0.01600
C396        C  0.36513009  0.03040397  0.11533950     0.03400
C397        C  0.34019701  0.06318077  0.23000823     0.38000
C398        C  0.33871934  0.03347916  0.03715152     0.38000
C399        C  0.38731542  0.51314973  0.09295639     0.36400
C400        C  0.33215488  0.11512166  0.16656098     0.36400
N401        N  0.40568020  0.50296583  0.06883110    -0.38400
N402        N  0.32717001  0.14038809  0.18208171    -0.38400
N403        N  0.32842922  0.02053692  0.99992473    -0.37800
N404        N  0.33314033  0.06517042  0.26898114    -0.37800
C405        C  0.22425929  0.14782777  0.90260924    -0.04500
C406        C  0.23963545  0.16858457  0.86076400    -0.01600
C407        C  0.21245704  0.16430374  0.82435016     0.03400
C408        C  0.16863643  0.14052248  0.83026127    -0.04500
C409        C  0.15341095  0.12340281  0.87501524    -0.01600
C410        C  0.18103678  0.12404730  0.90930718     0.03400
C411        C  0.28415882  0.18925105  0.85286056     0.38000
C412        C  0.10957769  0.10578719  0.88645972     0.38000
C413        C  0.16498653  0.09788280  0.94954295     0.36400
C414        C  0.23161137  0.17959354  0.77968675     0.36400
N415        N  0.15199428  0.07636690  0.98113626    -0.38400
N416        N  0.25130885  0.19081776  0.74606815    -0.38400
N417        N  0.07466655  0.09185196  0.89577310    -0.37800
N418        N  0.31951974  0.20346874  0.84695232    -0.37800
C419        C  0.42260537  0.26969993  0.90317959    -0.04500
C420        C  0.44345601  0.31117079  0.91422339    -0.01600
C421        C  0.46549095  0.34022008  0.87930550     0.03400
C422        C  0.46534581  0.32819851  0.83212906    -0.04500
C423        C  0.44518729  0.28604802  0.82203549    -0.01600
C424        C  0.42546974  0.25730933  0.85765702     0.03400
C425        C  0.44128190  0.32404838  0.96147109     0.38000
C426        C  0.44184361  0.27142333  0.77454543     0.38000
C427        C  0.40751007  0.21468983  0.84718556     0.36400
C428        C  0.48825810  0.38235063  0.89266962     0.36400
N429        N  0.39347649  0.18082404  0.83840200    -0.38400
N430        N  0.00577603  0.41596322  0.90357976    -0.38400
N431        N  0.43893014  0.25994203  0.73652837    -0.37800
N432        N  0.43956550  0.33451878  0.99904786    -0.37800
C433        C  0.23207813  0.16192825  0.10186067    -0.04500
C434        C  0.19024022  0.14920100  0.09180885    -0.01600
C435        C  0.16045338  0.13571662  0.12795684     0.03400
C436        C  0.17295619  0.13710143  0.17486847    -0.04500
C437        C  0.21603429  0.15476213  0.18481947    -0.01600
C438        C  0.24546796  0.16836051  0.14840633     0.03400
C439        C  0.17933727  0.15627437  0.04572997     0.38000
C440        C  0.23027712  0.15877349  0.23244627     0.38000
C441        C  0.28951654  0.19149654  0.15856406     0.36400
C442        C  0.11733872  0.12167469  0.11650883     0.36400
N443        N  0.32465364  0.21139146  0.16617808    -0.38400
N444        N  0.08297960  0.10996549  0.10661700    -0.38400
N445        N  0.24081342  0.16236171  0.27089026    -0.37800
N446        N  0.17074660  0.16396187  0.00995836    -0.37800
C447        C  0.41439352  0.26439650  0.10726161    -0.04500
C448        C  0.40482114  0.29535093  0.11604737    -0.01600
C449        C  0.43160650  0.32908573  0.14285414     0.03400
C450        C  0.46125896  0.32780952  0.17318117    -0.04500
C451        C  0.47006826  0.29576743  0.16580010    -0.01600
C452        C  0.44745512  0.26487583  0.13250428     0.03400
C453        C  0.36758384  0.29363953  0.09696693     0.38000
C454        C  0.00503062  0.29618806  0.18894819     0.38000
C455        C  0.45880633  0.23396717  0.12437426     0.36400
C456        C  0.43453225  0.36641783  0.12786139     0.36400
N457        N  0.46791991  0.20934610  0.11813418    -0.38400
N458        N  0.43736142  0.39516523  0.11112935    -0.38400
N459        N  0.03251632  0.29613332  0.20789296    -0.37800
N460        N  0.33801531  0.29250988  0.08207332    -0.37800
C461        C  0.05310343  0.17879780  0.81113169    -0.04500
C462        C  0.02835649  0.17600229  0.85016399    -0.01600
C463        C  0.04574069  0.20158244  0.88947708     0.03400
C464        C  0.08879231  0.23031216  0.89047545    -0.04500
C465        C  0.11233524  0.23610751  0.84890768    -0.01600
C466        C  0.09380681  0.21177155  0.80890903     0.03400
C467        C  0.48387903  0.15007698  0.84709276     0.38000
C468        C  0.15514212  0.26849896  0.84597801     0.38000
C469        C  0.11428253  0.22445802  0.76413827     0.36400
C470        C  0.01878632  0.19833731  0.92820481     0.36400
N471        N  0.13027038  0.23681862  0.72853142    -0.38400
N472        N  0.99688001  0.19579923  0.95864818    -0.38400
N473        N  0.18933775  0.29413789  0.84328049    -0.37800
N474        N  0.44828034  0.13078655  0.84299722    -0.37800
C475        C  0.03421029  0.16796324  0.17457111    -0.04500
C476        C  0.02895779  0.15548125  0.12724733    -0.01600
C477        C  0.04970185  0.18360243  0.09146540     0.03400
C478        C  0.07341339  0.22517785  0.10195255    -0.04500
C479        C  0.07676982  0.23814085  0.14870624    -0.01600
C480        C  0.05788962  0.20991359  0.18489940     0.07000
C481        C  0.50107252  0.11379648  0.11463422     0.38000
C482        C  0.10110046  0.28058455  0.16020685     0.38000
C483        C  0.06325786  0.22486172  0.23261520     0.36400
C484        C  0.04655388  0.16925783  0.04374797     0.36400
N485        N  0.06680224  0.23703483  0.27044081    -0.38400
N486        N  0.04432723  0.15712658  0.00611137    -0.38400
N487        N  0.11990730  0.31428671  0.17031109    -0.37800
N488        N  0.47941979  0.08053407  0.10415635    -0.37800
C489        C  0.13737367  0.45594450  0.82537873    -0.04500
C490        C  0.11775172  0.45012456  0.86984542    -0.01600
C491        C  0.11625786  0.42095631  0.90089282     0.03400
C492        C  0.14308889  0.40514322  0.89445823    -0.04500
C493        C  0.16726624  0.41461034  0.85341838    -0.01600
C494        C  0.16229158  0.43732573  0.81762792     0.03400
C495        C  0.10281557  0.47673383  0.88630281     0.38000
C496        C  0.19583732  0.39923845  0.84689383     0.38000
C497        C  0.18155145  0.43916284  0.77271345     0.36400
C498        C  0.08659074  0.40671062  0.93917042     0.36400
N499        N  0.19704360  0.44012993  0.73711527    -0.38400
N500        N  0.06264409  0.39466115  0.96943452    -0.38400
N501        N  0.21888489  0.38735862  0.84127105    -0.37800
N502        N  0.09132407  0.49825686  0.89959817    -0.37800
C503        C  0.33891676  0.36743400  0.84597523    -0.04500
C504        C  0.32338680  0.33092179  0.87071125    -0.01600
C505        C  0.29065927  0.31950928  0.90333373     0.03400
C506        C  0.27845513  0.34774746  0.91701813    -0.04500
C507        C  0.30179744  0.38750587  0.90108711    -0.01600
C508        C  0.32716739  0.39536957  0.86199210     0.03400
C509        C  0.34317902  0.30694408  0.86590485     0.38000
C510        C  0.29766166  0.42017734  0.92229468     0.38000
C511        C  0.33072223  0.42714531  0.83337301     0.36400
C512        C  0.26939901  0.27889805  0.92157492     0.36400
N513        N  0.32648606  0.45046375  0.81278277    -0.38400
N514        N  0.25196371  0.24645317  0.93608874    -0.38400
N515        N  0.29420905  0.44615871  0.93868263    -0.37800
N516        N  0.36003156  0.28843857  0.86456685    -0.37800
C517        C  0.15457233  0.41904623  0.09902966    -0.04500
C518        C  0.17030704  0.42015759  0.14404553    -0.01600
C519        C  0.16618381  0.44353111  0.18005106     0.03400
C520        C  0.14373384  0.46461086  0.17232687    -0.04500
C521        C  0.13440309  0.46848385  0.12527738    -0.01600
C522        C  0.14080563  0.44665020  0.08892610     0.03400
C523        C  0.19174340  0.39775962  0.15349514     0.38000
C524        C  0.12204541  0.49794617  0.11336095     0.38000
C525        C  0.14011964  0.45789305  0.04098810     0.36400
C526        C  0.18531368  0.44467462  0.22448493     0.36400
N527        N  0.14183283  0.46965853  0.00351031    -0.38400
N528        N  0.20187901  0.44571090  0.25900582    -0.38400
N529        N  0.11088964  0.02025051  0.10347712    -0.37800
N530        N  0.20903155  0.38022079  0.16147781    -0.37800
C531        C  0.32758852  0.35827449  0.17588794    -0.04500
C532        C  0.32936725  0.38837501  0.14565733    -0.01600
C533        C  0.29580316  0.38126822  0.11682294     0.03400
C534        C  0.26242679  0.34171747  0.10954323    -0.04500
C535        C  0.26147837  0.31029296  0.13645202    -0.01600
C536        C  0.29310758  0.31849597  0.16979004     0.03400
C537        C  0.36716505  0.42599820  0.14030597     0.38000
C538        C  0.22741972  0.26929574  0.13113723     0.38000
C539        C  0.28917807  0.28492096  0.19674501     0.36400
C540        C  0.29500764  0.41576183  0.09690386     0.36400
N541        N  0.28325738  0.25703672  0.21816281    -0.38400
N542        N  0.29337735  0.44278827  0.08130383    -0.38400
N543        N  0.20016257  0.23663016  0.12739474    -0.37800
N544        N  0.39959254  0.45398100  0.13567956    -0.37800
O545        O  0.14598595  0.76414689  0.94277417    -0.84500
O546        O  0.22747430  0.80912121  0.97441592    -0.81500
C547        C  0.24078532  0.83692252  0.94484949     0.99000
O548        O  0.22319705  0.85764300  0.94131967    -0.81600
O549        O  0.18063854  0.89770924  0.95720637    -0.84200
C550        C  0.14826972  0.88145374  0.93241267     1.03500
O551        O  0.11948360  0.84627608  0.94087540    -0.77000
O552        O  0.08939425  0.76688152  0.96048422    -0.77200
C553        C  0.10904836  0.75533492  0.93334218     1.03400
O554        O  0.11795930  0.74582620  0.03617032    -0.84500
O555        O  0.19777042  0.80081755  0.06759235    -0.81600
C556        C  0.23167674  0.83375510  0.07104190     0.99000
O557        O  0.24117414  0.86033737  0.03980260    -0.81600
O558        O  0.19129691  0.89330980  0.05525240    -0.84200
C559        C  0.15698398  0.89193309  0.06244290     1.03500
O560        O  0.12474220  0.86764205  0.03935274    -0.77000
O561        O  0.09716426  0.78719919  0.06063180    -0.77200
C562        C  0.09737315  0.75442319  0.06447561     1.03400
Cr563      Cr  0.17131477  0.78316036  0.00504157     1.93700
Cr564      Cr  0.20589794  0.87357875  0.99853772     1.93200
Cr565      Cr  0.11140918  0.81743226  0.00078643     1.39100
O566        O  0.16254936  0.82498000  0.00210140    -1.22200
O567        O  0.29436454  0.69730482  0.05788837    -0.84500
O568        O  0.37652971  0.74552725  0.03565125    -0.81500
C569        C  0.39301507  0.73556126  0.06769235     0.99000
O570        O  0.39237236  0.70230846  0.06467272    -0.81600
O571        O  0.36674477  0.62366366  0.03858034    -0.84200
C572        C  0.33691928  0.60450572  0.06651868     1.03500
O573        O  0.30392231  0.60594084  0.06261943    -0.77000
O574        O  0.25124236  0.63410686  0.03914459    -0.77200
C575        C  0.26074215  0.66498359  0.06407012     1.03400
O576        O  0.27216712  0.68445407  0.96214565    -0.84500
O577        O  0.35677806  0.72824533  0.93898740    -0.81600
C578        C  0.39512137  0.73946459  0.93789235     0.99000
O579        O  0.41058713  0.72640585  0.96769361    -0.81600
O580        O  0.37500478  0.64604870  0.94317472    -0.84200
C581        C  0.34697845  0.60996733  0.93666493     1.03500
O582        O  0.31500138  0.59342907  0.96304143    -0.77000
O583        O  0.26429429  0.62524603  0.94321306    -0.77200
C584        C  0.25442078  0.65216550  0.93860601     1.03400
Cr585      Cr  0.32535524  0.71057133  0.99854101     1.93700
Cr586      Cr  0.38224508  0.67416322  0.00342619     1.93200
Cr587      Cr  0.28728156  0.61838887  0.00197753     1.39100
O588        O  0.33130387  0.66749917  0.00065258    -1.22200
C589        C  0.50179278  0.96162762  0.25069507     0.03100
C590        C  0.46261543  0.96004546  0.25114565     0.03100
C591        C  0.46020248  0.99626734  0.24771300     0.03100
C592        C  0.49736019  0.53429103  0.24884472     0.03100
C593        C  0.03684435  0.53571554  0.24894543     0.03100
C594        C  0.03910560  0.99927232  0.24833438     0.03100
C595        C  0.37016674  0.50936892  0.19980497     0.04000
C596        C  0.40999144  0.51325950  0.20512716    -0.12200
C597        C  0.41861437  0.99425704  0.24260070     0.01500
C598        C  0.38767908  0.97432388  0.27660591    -0.10700
C599        C  0.34803079  0.96993271  0.27174035     0.04000
C600        C  0.33898887  0.98568341  0.23230958    -0.10100
H601        H  0.43424950  0.53091216  0.18019260     0.09600
H602        H  0.39458307  0.96249873  0.30744710     0.07100
H603        H  0.30805709  0.98178351  0.22875406     0.06900
C604        C  0.13108832  0.98362482  0.21184436     0.04000
C605        C  0.09141697  0.98106815  0.21264539    -0.12200
C606        C  0.08043660  0.00036290  0.24797723     0.01500
C607        C  0.10884532  0.52094793  0.28347224    -0.10700
C608        C  0.14750451  0.52251168  0.28496867     0.04000
C609        C  0.15832078  0.00450464  0.24872491    -0.10100
H610        H  0.06916439  0.96451601  0.18545088     0.09600
H611        H  0.10088678  0.53622959  0.31016740     0.07100
H612        H  0.18860743  0.00740872  0.24911322     0.06900
C613        C  0.14188614  0.62438208  0.21364847     0.04000
C614        C  0.10567481  0.58641599  0.21376409    -0.12200
C615        C  0.07606607  0.57576932  0.24977343     0.01500
C616        C  0.08325622  0.60378015  0.28588415    -0.10700
C617        C  0.11947384  0.64188469  0.28630724     0.04000
C618        C  0.14839896  0.65140193  0.25019084    -0.10100
H619        H  0.10032767  0.56525710  0.18567011     0.09600
H620        H  0.06029905  0.59599457  0.31330395     0.07100
H621        H  0.17640767  0.68048405  0.25032076     0.06900
C622        C  0.01402225  0.63773741  0.21293553     0.04000
C623        C  0.01555788  0.60165109  0.21392267    -0.12200
C624        C  0.49508852  0.57280511  0.24909611     0.01500
C625        C  0.47332677  0.58117572  0.28445085    -0.10700
C626        C  0.47262200  0.61798237  0.28481960     0.04000
C627        C  0.49233459  0.64493463  0.24822069    -0.10100
H628        H  0.03280026  0.59586682  0.18723752     0.09600
H629        H  0.45767488  0.55940757  0.31189447     0.07100
H630        H  0.49143417  0.67263909  0.24749457     0.06900
C631        C  0.37218857  0.86348956  0.29901923     0.04000
C632        C  0.41115542  0.89867037  0.29626895    -0.12200
C633        C  0.42369126  0.91987213  0.25439701     0.01500
C634        C  0.39981940  0.90199699  0.21470547    -0.10700
C635        C  0.35804927  0.87023648  0.21709311     0.04000
C636        C  0.34439740  0.85268198  0.26134651    -0.10100
H637        H  0.43231380  0.90875717  0.32558496     0.09600
H638        H  0.41539289  0.91367388  0.18258041     0.07100
H639        H  0.31268658  0.82922591  0.26698338     0.06900
C640        C  0.00721644  0.87044229  0.29426319     0.04000
C641        C  0.48741061  0.84360584  0.25698475    -0.12200
C642        C  0.48013812  0.85714108  0.21391662     0.01500
C643        C  0.48958655  0.89777826  0.21197506    -0.10700
C644        C  0.50252831  0.92281470  0.25157546     0.04000
C645        C  0.01317624  0.90968482  0.29207225    -0.10100
H646        H  0.47968807  0.81258583  0.26138394     0.09600
H647        H  0.48750612  0.91130598  0.18020460     0.07100
H648        H  0.02674453  0.93011836  0.32138967     0.06900
O649        O  0.26926011  0.64952412  0.56083521    -0.84500
O650        O  0.31688043  0.73095445  0.54351586    -0.81500
C651        C  0.34802720  0.74443219  0.57029827     0.99000
O652        O  0.37586835  0.73483509  0.56401976    -0.81600
O653        O  0.41163302  0.68877471  0.53871002    -0.84200
C654        C  0.39442277  0.65807692  0.56456228     1.03500
O655        O  0.35644646  0.63254521  0.55989639    -0.77000
O656        O  0.27398785  0.59796339  0.53556548    -0.77200
C657        C  0.25918552  0.61293262  0.56417338     1.03400
O658        O  0.25486055  0.63296137  0.46267982    -0.84500
O659        O  0.30843455  0.71396673  0.44603589    -0.81600
C660        C  0.34223150  0.74679909  0.44315345     0.99000
O661        O  0.37268196  0.75366533  0.46881066    -0.81600
O662        O  0.40116427  0.70087481  0.44179720    -0.84200
C663        C  0.40124357  0.66794565  0.43661054     1.03500
O664        O  0.37989349  0.63881392  0.46370716    -0.77000
O665        O  0.29791021  0.61227690  0.43964406    -0.77200
C666        C  0.26407554  0.61242234  0.43506770     1.03400
Cr667      Cr  0.29091320  0.68117704  0.50308478     1.93700
Cr668      Cr  0.38616006  0.71614040  0.50308594     1.93200
Cr669      Cr  0.32769255  0.62455410  0.49981241     1.39100
O670        O  0.33490286  0.67407318  0.50167833    -1.22200
O671        O  0.18729868  0.79168592  0.43620117    -0.84500
O672        O  0.24622301  0.87042155  0.45580607    -0.81500
C673        C  0.23789829  0.89176239  0.42916898     0.99000
O674        O  0.20637913  0.89556941  0.43669272    -0.81600
O675        O  0.12543887  0.87200351  0.46105725    -0.84200
C676        C  0.10272640  0.84257506  0.43454388     1.03500
O677        O  0.10026129  0.80874859  0.43984270    -0.77000
O678        O  0.12399004  0.75330787  0.46266185    -0.77200
C679        C  0.15224344  0.76013802  0.43330946     1.03400
O680        O  0.17928885  0.77209560  0.53343186    -0.84500
O681        O  0.23232114  0.85318535  0.55472428    -0.81600
C682        C  0.24291725  0.88990666  0.56105600     0.99000
O683        O  0.22997010  0.90665234  0.53309807    -0.81600
O684        O  0.14855026  0.87616882  0.55859650    -0.84200
C685        C  0.11069072  0.85092571  0.56478357     1.03500
O686        O  0.09168068  0.82196013  0.53665227    -0.77000
O687        O  0.12351274  0.77230378  0.55892585    -0.77200
C688        C  0.14866891  0.75909364  0.56132122     1.03400
Cr689      Cr  0.20815854  0.82275761  0.49532789     1.93700
Cr690      Cr  0.17664623  0.88354713  0.49735140     1.93200
Cr691      Cr  0.11420370  0.79252807  0.49937564     1.39100
O692        O  0.16643222  0.83299519  0.49715508    -1.22200
C693        C  0.50203367  0.96130424  0.75172702     0.03100
C694        C  0.46436309  0.96280728  0.75230629     0.03100
C695        C  0.46498048  0.00056039  0.75094027     0.03100
C696        C  0.50401025  0.53730629  0.74950160     0.03100
C697        C  0.04187574  0.53565959  0.74729194     0.03100
C698        C  0.04089452  0.49787998  0.74922453     0.03100
C699        C  0.12894715  0.97804571  0.78667686     0.04000
C700        C  0.08996002  0.97655095  0.78410486    -0.12200
C701        C  0.08087247  0.49663165  0.74889093     0.01500
C702        C  0.10939179  0.51427592  0.71232532    -0.10700
C703        C  0.14810631  0.51621027  0.71365502     0.04000
C704        C  0.15869611  0.50071985  0.75229411    -0.10100
H705        H  0.06598609  0.95963360  0.80946810     0.09600
H706        H  0.10196527  0.52761462  0.68330406     0.07100
H707        H  0.19037676  0.50675984  0.75497253     0.06900
C708        C  0.38031588  0.52815752  0.78149898     0.04000
C709        C  0.35134392  0.50712407  0.74539541    -0.12200
C710        C  0.35775009  0.98265897  0.71302046     0.01500
C711        C  0.39428832  0.98005027  0.71581345    -0.10700
C712        C  0.42443121  0.50142345  0.75039918     0.04000
C713        C  0.41744131  0.52605963  0.78188633    -0.10100
H714        H  0.32148049  0.50578248  0.74502310     0.09600
H715        H  0.39964959  0.96202249  0.69035742     0.07100
H716        H  0.44132706  0.54360868  0.80714326     0.06900
C717        C  0.48808413  0.62335240  0.70441338     0.04000
C718        C  0.01788556  0.65535299  0.73258310    -0.12200
C719        C  0.03457241  0.64784890  0.77271310     0.01500
C720        C  0.02891524  0.60898149  0.77932566    -0.10700
C721        C  0.00581165  0.57782464  0.74713067     0.04000
C722        C  0.48317639  0.58478909  0.71276971    -0.10100
H723        H  0.02706134  0.68632803  0.72524377     0.09600
H724        H  0.04244070  0.60302981  0.80950833     0.07100
H725        H  0.46151144  0.55913616  0.69374314     0.06900
C726        C  0.13959212  0.62807805  0.78890186     0.04000
C727        C  0.10817714  0.58760193  0.78453124    -0.12200
C728        C  0.08268276  0.57434420  0.74538265     0.01500
C729        C  0.09387485  0.59963713  0.70637057    -0.10700
C730        C  0.12288991  0.64152420  0.70955118     0.04000
C731        C  0.14390868  0.65517197  0.75301776    -0.10100
H732        H  0.10270068  0.56611540  0.81184676     0.09600
H733        H  0.07940135  0.58530286  0.67415246     0.07100
H734        H  0.16358509  0.68671470  0.76017777     0.06900
C735        C  0.02463772  0.87703933  0.71945857     0.04000
C736        C  0.02042749  0.91147712  0.71675997    -0.12200
C737        C  0.00106825  0.92135167  0.75273652     0.01500
C738        C  0.48253359  0.89402395  0.79003799    -0.10700
C739        C  0.48620485  0.85894155  0.79345451     0.04000
C740        C  0.00933691  0.85237477  0.75880223    -0.10100
H741        H  0.03337195  0.93137828  0.68706408     0.09600
H742        H  0.46545401  0.90036104  0.81627908     0.07100
H743        H  0.01447507  0.82700044  0.76163088     0.06900
C744        C  0.37737765  0.85666131  0.72424930     0.04000
C745        C  0.41257909  0.89511005  0.71965757    -0.12200
C746        C  0.42431401  0.92405749  0.75548591     0.01500
C747        C  0.40065475  0.91441580  0.79658494    -0.10700
C748        C  0.36533129  0.87627157  0.80238863     0.04000
C749        C  0.35399568  0.84753041  0.76600144    -0.10100
H750        H  0.43169967  0.90234288  0.68851555     0.09600
H751        H  0.41039534  0.93645655  0.82457986     0.07100
H752        H  0.32586877  0.81866697  0.76944236     0.06900
C753        C  0.12986877  0.67047617  0.66884128    -0.04500
C754        C  0.16963985  0.70447365  0.65846691    -0.01600
C755        C  0.17568581  0.72684484  0.61752508     0.03400
C756        C  0.14188290  0.72729659  0.59615222    -0.04500
C757        C  0.10172312  0.69625312  0.60778720    -0.01600
C758        C  0.09675823  0.66532653  0.63862594     0.03400
C759        C  0.20311871  0.72370584  0.69157875     0.38000
C760        C  0.06556232  0.69371673  0.58493264     0.38000
C761        C  0.05961342  0.62716939  0.63255018     0.36400
C762        C  0.21718096  0.74976323  0.59851266     0.36400
N763        N  0.03154720  0.59604199  0.62377307    -0.38400
N764        N  0.25027548  0.76753670  0.58306594    -0.38400
N765        N  0.03667097  0.69186454  0.56715861    -0.37800
N766        N  0.23016298  0.74451347  0.71607479    -0.37800
C767        C  0.08765708  0.85555437  0.60455237    -0.04500
C768        C  0.05218564  0.85933549  0.59639837    -0.01600
C769        C  0.03018184  0.86377929  0.63417943     0.03400
C770        C  0.04478428  0.86676098  0.68040479    -0.04500
C771        C  0.07913474  0.86090466  0.68861401    -0.01600
C772        C  0.10057681  0.85560088  0.65079010     0.03400
C773        C  0.04024452  0.86206553  0.54902607     0.38000
C774        C  0.09175039  0.85879289  0.73583746     0.38000
C775        C  0.13581248  0.84990031  0.65969396     0.36400
C776        C  0.99153218  0.86367013  0.62540261     0.36400
N777        N  0.16382630  0.84537887  0.66756107    -0.38400
N778        N  0.96054034  0.86314716  0.61815100    -0.38400
N779        N  0.10064638  0.85535995  0.77349422    -0.37800
N780        N  0.03105053  0.86529501  0.51144683    -0.37800
C781        C  0.32573504  0.95907280  0.67640561    -0.04500
C782        C  0.31812038  0.97898643  0.63990267    -0.01600
C783        C  0.29161350  0.95699198  0.60238326     0.03400
C784        C  0.27096013  0.91403252  0.60121685    -0.04500
C785        C  0.27501987  0.89440910  0.64097447    -0.01600
C786        C  0.30179507  0.91668973  0.67810197     0.03400
C787        C  0.33476463  0.52201210  0.64315725     0.38000
C788        C  0.24869470  0.85140541  0.64693063     0.38000
C789        C  0.29975593  0.89538907  0.72025918     0.36400
C790        C  0.28492537  0.97962600  0.56657044     0.36400
N791        N  0.29346186  0.87521971  0.75251538    -0.38400
N792        N  0.27998245  0.99909521  0.53947725    -0.38400
N793        N  0.22735151  0.81753584  0.65439597    -0.37800
N794        N  0.34644777  0.55614764  0.64611384    -0.37800
C795        C  0.41954309  0.65010414  0.59830767    -0.04500
C796        C  0.42170665  0.61459560  0.59416626    -0.01600
C797        C  0.44411557  0.60541423  0.62703307     0.03400
C798        C  0.46242386  0.63067403  0.66758894    -0.04500
C799        C  0.45560033  0.66430760  0.67277044    -0.01600
C800        C  0.43907864  0.67627434  0.63593937     0.03400
C801        C  0.40044765  0.58705823  0.55544466     0.38000
C802        C  0.46006083  0.68387787  0.71765210     0.38000
C803        C  0.44269344  0.71586480  0.63646409     0.36400
C804        C  0.44495980  0.56849858  0.61773750     0.36400
N805        N  0.44670680  0.74788859  0.63551544    -0.38400
N806        N  0.44377353  0.53831189  0.60875748    -0.38400
N807        N  0.46370896  0.69907731  0.75375966    -0.37800
N808        N  0.38343597  0.56508965  0.52487139    -0.37800
C809        C  0.23025554  0.58725166  0.60216185    -0.04500
C810        C  0.22916109  0.60470248  0.64569685    -0.01600
C811        C  0.20713830  0.57992251  0.68356503     0.03400
C812        C  0.17905353  0.53898972  0.67649303    -0.04500
C813        C  0.17777182  0.52142323  0.63278497    -0.01600
C814        C  0.20475925  0.54485188  0.59641940     0.03400
C815        C  0.24738346  0.64785951  0.65050908     0.38000
C816        C  0.14865682  0.97917682  0.62483195     0.38000
C817        C  0.20426218  0.52514197  0.55271582     0.36400
C818        C  0.21590966  0.59458373  0.73095502     0.36400
N819        N  0.20352012  0.50898152  0.51807003    -0.38400
N820        N  0.22254209  0.60217156  0.77015045    -0.38400
N821        N  0.12536797  0.94547835  0.61856598    -0.37800
N822        N  0.26045914  0.68233370  0.65140528    -0.37800
C823        C  0.36579835  0.82631777  0.68512819    -0.04500
C824        C  0.36010839  0.83591195  0.63905709    -0.01600
C825        C  0.35072958  0.80778324  0.60227475     0.03400
C826        C  0.35198912  0.77182508  0.60968713    -0.04500
C827        C  0.35665726  0.76172672  0.65551987    -0.01600
C828        C  0.36130598  0.78781220  0.69300674     0.03400
C829        C  0.36362461  0.87461011  0.62890406     0.38000
C830        C  0.35378532  0.72302627  0.66468191     0.38000
C831        C  0.35953048  0.77352121  0.73956940     0.36400
C832        C  0.33719611  0.81511169  0.55792534     0.36400
N833        N  0.35626816  0.75975434  0.77601842    -0.38400
N834        N  0.32407071  0.82084006  0.52405890    -0.38400
N835        N  0.35095954  0.69202903  0.67220720    -0.37800
N836        N  0.36730073  0.90563171  0.61961270    -0.37800
C837        C  0.03025872  0.86075708  0.32999854    -0.04500
C838        C  0.01050300  0.83577209  0.36849269    -0.01600
C839        C  0.03383214  0.82787697  0.40145307     0.03400
C840        C  0.07765135  0.84765926  0.39785537    -0.04500
C841        C  0.09716746  0.87103384  0.35799669    -0.01600
C842        C  0.07291852  0.87501539  0.32301073     0.03400
C843        C  0.96608030  0.81630001  0.37251981     0.38000
C844        C  0.14171659  0.88931833  0.35181143     0.38000
C845        C  0.08904178  0.88677625  0.27645375     0.36400
C846        C  0.01275553  0.79880907  0.43830872     0.36400
N847        N  0.09744125  0.89224013  0.23736043    -0.38400
N848        N  0.99600270  0.77530236  0.46742632    -0.38400
N849        N  0.17732105  0.90404736  0.34685087    -0.37800
N850        N  0.93036545  0.79995101  0.37535799    -0.37800
C851        C  0.36235360  0.83427184  0.33750498    -0.04500
C852        C  0.34963302  0.79373972  0.32612621    -0.01600
C853        C  0.33610040  0.76474159  0.36139963     0.03400
C854        C  0.34687307  0.77714101  0.40810456    -0.04500
C855        C  0.36706736  0.81894837  0.41875120    -0.01600
C856        C  0.36929362  0.84641419  0.38474869     0.03400
C857        C  0.35843777  0.78339381  0.28018672     0.38000
C858        C  0.39135258  0.83474615  0.46091716     0.38000
C859        C  0.37974884  0.88698914  0.39835416     0.36400
C860        C  0.31647673  0.72256724  0.34898928     0.36400
N861        N  0.38763556  0.91926218  0.40917413    -0.38400
N862        N  0.30094582  0.68863560  0.34028198    -0.38400
N863        N  0.41246145  0.84804222  0.49334531    -0.37800
N864        N  0.36739884  0.77574207  0.24427816    -0.37800
C865        C  0.45449151  0.63106970  0.32433658    -0.04500
C866        C  0.43196343  0.65164231  0.31514942    -0.01600
C867        C  0.42107328  0.66969416  0.35177989     0.03400
C868        C  0.42553912  0.66168973  0.39856461    -0.04500
C869        C  0.44922727  0.64273873  0.40813806    -0.01600
C870        C  0.46478307  0.62878413  0.37139954     0.03400
C871        C  0.41945076  0.65456543  0.26808683     0.38000
C872        C  0.46131734  0.64123510  0.45571228     0.38000
C873        C  0.49323261  0.61418630  0.38236769     0.36400
C874        C  0.40640004  0.69744092  0.34073238     0.36400
N875        N  0.01603754  0.60275685  0.39141337    -0.38400
N876        N  0.39557541  0.71997194  0.33041374    -0.38400
N877        N  0.47242656  0.64068017  0.49318658    -0.37800
N878        N  0.41047779  0.65803392  0.23048943    -0.37800
C879        C  0.12758436  0.67227406  0.32421525    -0.04500
C880        C  0.13904150  0.71271561  0.31306061    -0.01600
C881        C  0.14537778  0.74077143  0.34878387     0.03400
C882        C  0.14387455  0.73003885  0.39594621    -0.04500
C883        C  0.13317324  0.69017140  0.40743933    -0.01600
C884        C  0.12510006  0.66143243  0.37185061     0.03400
C885        C  0.14570751  0.72642092  0.26501702     0.38000
C886        C  0.13081399  0.67873557  0.45607444     0.38000
C887        C  0.11629165  0.62127114  0.38460866     0.36400
C888        C  0.15115171  0.78011990  0.33694748     0.36400
N889        N  0.10900580  0.58920577  0.39497789    -0.38400
N890        N  0.15527569  0.81125124  0.32727404    -0.38400
N891        N  0.12875275  0.66951185  0.49481673    -0.37800
N892        N  0.15238230  0.73784988  0.22690252    -0.37800
C893        C  0.17759393  0.54441773  0.32397698    -0.04500
C894        C  0.16374550  0.53983741  0.37104566    -0.01600
C895        C  0.19128272  0.56378405  0.40678242     0.03400
C896        C  0.23433924  0.58779800  0.39743042    -0.04500
C897        C  0.24879192  0.58815512  0.35163832    -0.01600
C898        C  0.22058649  0.56972520  0.31470185     0.03400
C899        C  0.12182431  0.50905955  0.38349110     0.38000
C900        C  0.29280248  0.60732458  0.34194012     0.38000
C901        C  0.23629882  0.57808954  0.26717028     0.36400
C902        C  0.17505706  0.56274025  0.45331300     0.36400
N903        N  0.24830235  0.58412190  0.22905661    -0.38400
N904        N  0.16155250  0.56215986  0.49005171    -0.38400
N905        N  0.32785257  0.62191421  0.33369885    -0.37800
N906        N  0.08849279  0.48437564  0.39346020    -0.37800
C907        C  0.26555563  0.91243372  0.38861595    -0.04500
C908        C  0.26946183  0.88967451  0.35182906    -0.01600
C909        C  0.29036652  0.90895849  0.31053959     0.03400
C910        C  0.31705200  0.95086038  0.31009803    -0.04500
C911        C  0.31607763  0.97388269  0.34839088    -0.01600
C912        C  0.28716726  0.95493303  0.38503373     0.03400
C913        C  0.25383969  0.84683111  0.35621889     0.38000
C914        C  0.34510519  0.51709240  0.35114782     0.38000
C915        C  0.27945306  0.97939994  0.41796110     0.36400
C916        C  0.27920308  0.88635200  0.26743243     0.36400
N917        N  0.27285959  0.99987553  0.44233902    -0.38400
N918        N  0.26702859  0.86779309  0.23340952    -0.38400
N919        N  0.36853108  0.55121039  0.35413981    -0.37800
N920        N  0.24365655  0.81298086  0.35887509    -0.37800
C921        C  0.36966337  0.54765443  0.82205879    -0.04500
C922        C  0.34647923  0.56796449  0.81547767    -0.01600
C923        C  0.33506347  0.58377714  0.85416010     0.03400
C924        C  0.35265037  0.58652980  0.89833994    -0.04500
C925        C  0.37819474  0.56933068  0.90467423    -0.01600
C926        C  0.38241222  0.54603984  0.86870497     0.03400
C927        C  0.33588350  0.57525231  0.76934596     0.38000
C928        C  0.40265587  0.57789670  0.94693873     0.38000
C929        C  0.39883221  0.51989532  0.88126081     0.36400
C930        C  0.30577582  0.59811149  0.84817953     0.36400
N931        N  0.41186526  0.49911026  0.89188252    -0.38400
N932        N  0.28172291  0.60871037  0.84330070    -0.38400
N933        N  0.42290803  0.58537804  0.98012443    -0.37800
N934        N  0.32672088  0.58187859  0.73330901    -0.37800
C935        C  0.36163495  0.53380388  0.16473979    -0.04500
C936        C  0.34715193  0.56004390  0.18096711    -0.01600
C937        C  0.33956944  0.58386804  0.14935773     0.03400
C938        C  0.34032966  0.57775207  0.10110306    -0.04500
C939        C  0.34872125  0.54791545  0.08499827    -0.01600
C940        C  0.36466256  0.53024843  0.11544775     0.03400
C941        C  0.34038921  0.56340065  0.23022353     0.38000
C942        C  0.33788697  0.53319054  0.03741696     0.38000
C943        C  0.38791966  0.01340408  0.09295074     0.36400
C944        C  0.33221693  0.61528724  0.16686360     0.36400
N945        N  0.40639528  0.00328534  0.06891452    -0.38400
N946        N  0.32732387  0.64053712  0.18261390    -0.38400
N947        N  0.32734463  0.52013911  0.00027329    -0.37800
N948        N  0.33356558  0.56547395  0.26925322    -0.37800
C949        C  0.22419498  0.64801613  0.90254366    -0.04500
C950        C  0.23953017  0.66882802  0.86071456    -0.01600
C951        C  0.21231560  0.66462725  0.82437081     0.03400
C952        C  0.16850001  0.64088387  0.83035999    -0.04500
C953        C  0.15332451  0.62384717  0.87514771    -0.01600
C954        C  0.18096575  0.62442806  0.90938450     0.03400
C955        C  0.28405025  0.68962164  0.85281529     0.38000
C956        C  0.10952766  0.60642217  0.88667365     0.38000
C957        C  0.16489994  0.59846199  0.94977546     0.36400
C958        C  0.23140080  0.67996537  0.77968363     0.36400
N959        N  0.15187696  0.57710904  0.98150544    -0.38400
N960        N  0.25098286  0.69119782  0.74598442    -0.38400
N961        N  0.07464824  0.59266921  0.89604625    -0.37800
N962        N  0.31943376  0.70400022  0.84696863    -0.37800
C963        C  0.42252756  0.76964926  0.90294723    -0.04500
C964        C  0.44340850  0.81111397  0.91405826    -0.01600
C965        C  0.46545899  0.84020223  0.87917529     0.03400
C966        C  0.46529057  0.82822083  0.83197794    -0.04500
C967        C  0.44498911  0.78609643  0.82177556    -0.01600
C968        C  0.42528920  0.75731367  0.85735338     0.03400
C969        C  0.44118914  0.82394350  0.96132027     0.38000
C970        C  0.44148645  0.77158443  0.77420082     0.38000
C971        C  0.40725960  0.71471558  0.84674604     0.36400
C972        C  0.48820258  0.88232582  0.89257748     0.36400
N973        N  0.39319727  0.68087560  0.83780526    -0.38400
N974        N  0.00570211  0.91592660  0.90355306    -0.38400
N975        N  0.43847790  0.76024703  0.73610301    -0.37800
N976        N  0.43940735  0.83436141  0.99890539    -0.37800
C977        C  0.23205333  0.66210723  0.10173552    -0.04500
C978        C  0.19023409  0.64954249  0.09175738    -0.01600
C979        C  0.16047186  0.63603159  0.12794690     0.03400
C980        C  0.17296656  0.63708342  0.17480132    -0.04500
C981        C  0.21602765  0.65452426  0.18469367    -0.01600
C982        C  0.24544897  0.66827913  0.14826877     0.03400
C983        C  0.17936569  0.65688076  0.04578497     0.38000
C984        C  0.23025734  0.65810565  0.23226695     0.38000
C985        C  0.28950470  0.69134653  0.15840565     0.36400
C986        C  0.11740953  0.62237471  0.11663405     0.36400
N987        N  0.32465449  0.71122544  0.16596492    -0.38400
N988        N  0.08309100  0.61100708  0.10685325    -0.38400
N989        N  0.24079647  0.66132070  0.27067591    -0.37800
N990        N  0.17079250  0.66476475  0.01011868    -0.37800
C991        C  0.41478945  0.76475041  0.10677469    -0.04500
C992        C  0.40469247  0.79527096  0.11611202    -0.01600
C993        C  0.43139159  0.82909123  0.14284749     0.03400
C994        C  0.46154244  0.82818064  0.17264222    -0.04500
C995        C  0.47101116  0.79666780  0.16459391    -0.01600
C996        C  0.44852484  0.76583707  0.13119362     0.03400
C997        C  0.36711150  0.79311275  0.09747072     0.38000
C998        C  0.00648707  0.79767812  0.18716132     0.38000
C999        C  0.46083765  0.73577104  0.12188153     0.36400
C1000       C  0.43393309  0.86626890  0.12793069     0.36400
N1001       N  0.47075578  0.71185270  0.11462287    -0.38400
N1002       N  0.43645538  0.89487274  0.11115542    -0.38400
N1003       N  0.03444054  0.79816526  0.20563032    -0.37800
N1004       N  0.33726939  0.79160017  0.08287590    -0.37800
C1005       C  0.05275320  0.67881861  0.81116261    -0.04500
C1006       C  0.02807812  0.67608891  0.85024528    -0.01600
C1007       C  0.04554139  0.70179211  0.88945150     0.03400
C1008       C  0.08861815  0.73045647  0.89035273    -0.04500
C1009       C  0.11203979  0.73623686  0.84869264    -0.01600
C1010       C  0.09340379  0.71185567  0.80875898     0.03400
C1011       C  0.48358686  0.65009557  0.84736745     0.38000
C1012       C  0.15480436  0.76868217  0.84558327     0.38000
C1013       C  0.11367862  0.72454300  0.76388287     0.36400
C1014       C  0.01863300  0.69881473  0.92811377     0.36400
N1015       N  0.12945304  0.73687500  0.72817445    -0.38400
N1016       N  0.99677093  0.69653169  0.95848959    -0.38400
N1017       N  0.18896299  0.79436932  0.84270795    -0.37800
N1018       N  0.44797166  0.63074120  0.84348806    -0.37800
C1019       C  0.03448813  0.66822035  0.17477210    -0.04500
C1020       C  0.02887942  0.65568108  0.12744987    -0.01600
C1021       C  0.04959550  0.68370406  0.09156402     0.03400
C1022       C  0.07368285  0.72525097  0.10196892    -0.04500
C1023       C  0.07738669  0.73830818  0.14870756    -0.01600
C1024       C  0.05839613  0.71018829  0.18498274     0.07000
C1025       C  0.50058683  0.61405823  0.11495558     0.38000
C1026       C  0.10225721  0.78073822  0.16006860     0.38000
C1027       C  0.06382721  0.72531096  0.23261479     0.36400
C1028       C  0.04600871  0.66930018  0.04382084     0.36400
N1029       N  0.06743444  0.73770060  0.27034093    -0.38400
N1030       N  0.04340164  0.65710804  0.00615514    -0.38400
N1031       N  0.12156709  0.81445297  0.16995804    -0.37800
N1032       N  0.47856666  0.58084681  0.10456680    -0.37800
C1033       C  0.13746311  0.95563651  0.82506646    -0.04500
C1034       C  0.11773622  0.94972816  0.86947169    -0.01600
C1035       C  0.11626738  0.92058045  0.90051836     0.03400
C1036       C  0.14344573  0.90514021  0.89440131    -0.04500
C1037       C  0.16776696  0.91473705  0.85345206    -0.01600
C1038       C  0.16261029  0.93722670  0.81749577     0.03400
C1039       C  0.10280765  0.97632837  0.88595641     0.38000
C1040       C  0.19658637  0.89963932  0.84712897     0.38000
C1041       C  0.18183427  0.93895273  0.77258818     0.36400
C1042       C  0.08619291  0.90588054  0.93838040     0.36400
N1043       N  0.19725779  0.93978214  0.73698529    -0.38400
N1044       N  0.06193654  0.89341304  0.96831755    -0.38400
N1045       N  0.21982367  0.88797107  0.84163169    -0.37800
N1046       N  0.09137808  0.99788869  0.89928870    -0.37800
C1047       C  0.33856634  0.86760406  0.84517604    -0.04500
C1048       C  0.32318230  0.83107816  0.86984373    -0.01600
C1049       C  0.29053558  0.81957117  0.90258238     0.03400
C1050       C  0.27837356  0.84777732  0.91652234    -0.04500
C1051       C  0.30171405  0.88758083  0.90073925    -0.01600
C1052       C  0.32690644  0.89553283  0.86147200     0.03400
C1053       C  0.34328915  0.80737595  0.86512283     0.38000
C1054       C  0.29788511  0.92024440  0.92245151     0.38000
C1055       C  0.33047457  0.92748793  0.83315582     0.36400
C1056       C  0.26945028  0.77896853  0.92083861     0.36400
N1057       N  0.32623145  0.95097528  0.81292966    -0.38400
N1058       N  0.25217743  0.74653529  0.93539596    -0.38400
N1059       N  0.29468954  0.94620959  0.93931755    -0.37800
N1060       N  0.36049082  0.78919206  0.86392327    -0.37800
C1061       C  0.15485341  0.91904343  0.09928508    -0.04500
C1062       C  0.17102102  0.92070378  0.14421541    -0.01600
C1063       C  0.16690618  0.94422500  0.18008112     0.03400
C1064       C  0.14403022  0.96490108  0.17234945    -0.04500
C1065       C  0.13411289  0.96814167  0.12534296    -0.01600
C1066       C  0.14049167  0.94617906  0.08912908     0.03400
C1067       C  0.19279537  0.89865066  0.15377077     0.38000
C1068       C  0.12107012  0.99706381  0.11324328     0.38000
C1069       C  0.13909787  0.95685546  0.04112719     0.36400
C1070       C  0.18634950  0.94581303  0.22445312     0.36400
N1071       N  0.14023900  0.96822832  0.00356873    -0.38400
N1072       N  0.20314442  0.94722386  0.25893416    -0.38400
N1073       N  0.11245508  0.52159607  0.10375994    -0.37800
N1074       N  0.21034786  0.88138877  0.16187893    -0.37800
C1075       C  0.32780242  0.85827247  0.17586183    -0.04500
C1076       C  0.32949159  0.88834248  0.14565865    -0.01600
C1077       C  0.29596222  0.88114472  0.11671660     0.03400
C1078       C  0.26273667  0.84153363  0.10928728    -0.04500
C1079       C  0.26197437  0.81012620  0.13605556    -0.01600
C1080       C  0.29348648  0.81842469  0.16960031     0.03400
C1081       C  0.36721315  0.92602179  0.14037948     0.38000
C1082       C  0.22829287  0.76902245  0.13025018     0.38000
C1083       C  0.28962639  0.78488873  0.19658585     0.36400
C1084       C  0.29513196  0.91560733  0.09673416     0.36400
N1085       N  0.28378447  0.75704288  0.21803496    -0.38400
N1086       N  0.29355568  0.94265031  0.08109250    -0.38400
N1087       N  0.20132461  0.73626906  0.12606225    -0.37800
N1088       N  0.39960477  0.95404634  0.13576845    -0.37800
O1089       O  0.64601277  0.26413324  0.94302240    -0.84500
O1090       O  0.72744131  0.30922608  0.97485435    -0.81500
C1091       C  0.74076692  0.33692222  0.94515986     0.99000
O1092       O  0.72309651  0.35754589  0.94135854    -0.81600
O1093       O  0.68045042  0.39760731  0.95690583    -0.84200
C1094       C  0.64794646  0.38140386  0.93234637     1.03500
O1095       O  0.61914670  0.34624258  0.94086964    -0.77000
O1096       O  0.58933050  0.26682572  0.96044406    -0.77200
C1097       C  0.60907963  0.25525764  0.93346223     1.03400
O1098       O  0.61783464  0.24590373  0.03629068    -0.84500
O1099       O  0.69748249  0.30105905  0.06786315    -0.81600
C1100       C  0.73139246  0.33398304  0.07128630     0.99000
O1101       O  0.74093226  0.36052924  0.03997916    -0.81600
O1102       O  0.69106589  0.39355320  0.05486710    -0.84200
C1103       C  0.65670383  0.39204437  0.06212468     1.03500
O1104       O  0.62440357  0.36758269  0.03924822    -0.77000
O1105       O  0.59693160  0.28719189  0.06066133    -0.77200
C1106       C  0.59717763  0.25444020  0.06454556     1.03400
Cr1107     Cr  0.67120467  0.28327243  0.00528993     1.93700
Cr1108     Cr  0.70570824  0.37363179  0.99841303     1.93200
Cr1109     Cr  0.61117493  0.31738826  0.00075457     1.39100
O1110       O  0.66236359  0.32503540  0.00210962    -1.22200
O1111       O  0.79435927  0.19716501  0.05801146    -0.84500
O1112       O  0.87646869  0.24539095  0.03587841    -0.81500
C1113       C  0.89280745  0.23532983  0.06798949     0.99000
O1114       O  0.89225365  0.20212189  0.06482374    -0.81600
O1115       O  0.86688354  0.12360058  0.03835078    -0.84200
C1116       C  0.83712356  0.10444345  0.06635006     1.03500
O1117       O  0.80412959  0.10588666  0.06258031    -0.77000
O1118       O  0.75134422  0.13392649  0.03932407    -0.77200
C1119       C  0.76080068  0.16480179  0.06424069     1.03400
O1120       O  0.77218198  0.18434859  0.96222929    -0.84500
O1121       O  0.85681772  0.22825484  0.93915160    -0.81600
C1122       C  0.89517992  0.23954472  0.93812691     0.99000
O1123       O  0.91064257  0.22651991  0.96796050    -0.81600
O1124       O  0.87512815  0.14622757  0.94307955    -0.84200
C1125       C  0.84712266  0.11014477  0.93647325     1.03500
O1126       O  0.81517812  0.09350254  0.96290118    -0.77000
O1127       O  0.76432836  0.12513411  0.94335038    -0.77200
C1128       C  0.75444579  0.15203643  0.93872337     1.03400
Cr1129     Cr  0.82535018  0.21048825  0.99867384     1.93700
Cr1130     Cr  0.88230721  0.17417638  0.00345424     1.93200
Cr1131     Cr  0.78739689  0.11831221  0.00201878     1.39100
O1132       O  0.83135106  0.16744906  0.00070167    -1.22200
C1133       C  0.00166218  0.46156270  0.25054027     0.03100
C1134       C  0.96248826  0.45999296  0.25095992     0.03100
C1135       C  0.96010053  0.49623949  0.24755986     0.03100
C1136       C  0.99741644  0.03432434  0.24906452     0.03100
C1137       C  0.53693294  0.03579096  0.24922201     0.03100
C1138       C  0.53898132  0.49918960  0.24810132     0.03100
C1139       C  0.87033598  0.00937385  0.19968070     0.04000
C1140       C  0.91016683  0.01331091  0.20512686    -0.12200
C1141       C  0.91851521  0.49427419  0.24261212     0.01500
C1142       C  0.88768341  0.47447731  0.27677796    -0.10700
C1143       C  0.84805811  0.47020015  0.27209524     0.04000
C1144       C  0.83891845  0.48583573  0.23262327    -0.10100
H1145       H  0.93448580  0.03104433  0.18028801     0.09600
H1146       H  0.89465158  0.46266821  0.30758803     0.07100
H1147       H  0.80799421  0.48197432  0.22916893     0.06900
C1148       C  0.63076319  0.48322499  0.21186742     0.04000
C1149       C  0.59123337  0.48094755  0.21244421    -0.12200
C1150       C  0.58026828  0.50022716  0.24779497     0.01500
C1151       C  0.60908225  0.02121754  0.28356568    -0.10700
C1152       C  0.64786685  0.02303627  0.28488891     0.04000
C1153       C  0.65786449  0.50379882  0.24894765    -0.10100
H1154       H  0.56908963  0.46462047  0.18506792     0.09600
H1155       H  0.60107497  0.03640938  0.31032928     0.07100
H1156       H  0.68802151  0.50640549  0.24954611     0.06900
C1157       C  0.64185344  0.12449245  0.21368011     0.04000
C1158       C  0.60571860  0.08647208  0.21395629    -0.12200
C1159       C  0.57612201  0.07587663  0.24996888     0.01500
C1160       C  0.58329710  0.10396970  0.28597942    -0.10700
C1161       C  0.61946149  0.14212227  0.28625490     0.04000
C1162       C  0.64829275  0.15163154  0.25005016    -0.10100
H1163       H  0.60041995  0.06522557  0.18598129     0.09600
H1164       H  0.56038671  0.09620032  0.31344550     0.07100
H1165       H  0.67621784  0.18077440  0.25002619     0.06900
C1166       C  0.51361234  0.13746076  0.21265580     0.04000
C1167       C  0.51545602  0.10155019  0.21393616    -0.12200
C1168       C  0.99503747  0.07278350  0.24917761     0.01500
C1169       C  0.97308656  0.08110873  0.28435559    -0.10700
C1170       C  0.97212941  0.11780139  0.28448185     0.04000
C1171       C  0.99164186  0.14457752  0.24768345    -0.10100
H1172       H  0.53288396  0.09583966  0.18741771     0.09600
H1173       H  0.95751337  0.05940746  0.31188195     0.07100
H1174       H  0.99060315  0.17220532  0.24670443     0.06900
C1175       C  0.87208624  0.36346685  0.29897391     0.04000
C1176       C  0.91105883  0.39864390  0.29615293    -0.12200
C1177       C  0.92356058  0.41982013  0.25425112     0.01500
C1178       C  0.89967958  0.40186170  0.21458637    -0.10700
C1179       C  0.85788581  0.37017612  0.21705063     0.04000
C1180       C  0.84425668  0.35267564  0.26134376    -0.10100
H1181       H  0.93225901  0.40875346  0.32542747     0.09600
H1182       H  0.91523817  0.41340414  0.18238102     0.07100
H1183       H  0.81252987  0.32928926  0.26705193     0.06900
C1184       C  0.50689073  0.37046101  0.29472709     0.04000
C1185       C  0.98692300  0.34348288  0.25761913    -0.12200
C1186       C  0.97991766  0.35692948  0.21434160     0.01500
C1187       C  0.98961501  0.39764135  0.21214339    -0.10700
C1188       C  0.00241647  0.42276180  0.25166581     0.04000
C1189       C  0.51297971  0.40973515  0.29230295    -0.10100
H1190       H  0.97887286  0.31241479  0.26236972     0.09600
H1191       H  0.98785193  0.41119567  0.18026242     0.07100
H1192       H  0.52656606  0.43025871  0.32154053     0.06900
O1193       O  0.76949381  0.14970286  0.56106655    -0.84500
O1194       O  0.81705940  0.23114288  0.54379582    -0.81500
C1195       C  0.84822281  0.24462705  0.57055376     0.99000
O1196       O  0.87609892  0.23508960  0.56419871    -0.81600
O1197       O  0.91178170  0.18894568  0.53902178    -0.84200
C1198       C  0.89452064  0.15822775  0.56485770     1.03500
O1199       O  0.85654919  0.13270261  0.56011229    -0.77000
O1200       O  0.77412037  0.09814350  0.53561113    -0.77200
C1201       C  0.75930937  0.11307755  0.56424663     1.03400
O1202       O  0.75504761  0.13315786  0.46291042    -0.84500
O1203       O  0.80854499  0.21415216  0.44632369    -0.81600
C1204       C  0.84234211  0.24696409  0.44334438     0.99000
O1205       O  0.87286250  0.25383389  0.46890262    -0.81600
O1206       O  0.90136327  0.20102190  0.44200133    -0.84200
C1207       C  0.90141231  0.16807857  0.43679224     1.03500
O1208       O  0.88011276  0.13898679  0.46395337    -0.77000
O1209       O  0.79814694  0.11256119  0.43977499    -0.77200
C1210       C  0.76429208  0.11268034  0.43522900     1.03400
Cr1211     Cr  0.79109949  0.18136971  0.50334361     1.93700
Cr1212     Cr  0.88636108  0.21633593  0.50327996     1.93200
Cr1213     Cr  0.82787397  0.12475698  0.49997850     1.39100
O1214       O  0.83509924  0.17428019  0.50188359    -1.22200
O1215       O  0.68743041  0.29196374  0.43630356    -0.84500
O1216       O  0.74616349  0.37073841  0.45620867    -0.81500
C1217       C  0.73781390  0.39207120  0.42957992     0.99000
O1218       O  0.70621338  0.39575431  0.43706605    -0.81600
O1219       O  0.62516174  0.37192608  0.46140395    -0.84200
C1220       C  0.60242487  0.34251423  0.43488979     1.03500
O1221       O  0.60003238  0.30870228  0.44005504    -0.77000
O1222       O  0.62407903  0.25340425  0.46257630    -0.77200
C1223       C  0.65242764  0.26036461  0.43330397     1.03400
O1224       O  0.67933476  0.27209847  0.53341996    -0.84500
O1225       O  0.73206203  0.35314839  0.55506822    -0.81600
C1226       C  0.74259349  0.38984015  0.56148562     0.99000
O1227       O  0.72964121  0.40660454  0.53355511    -0.81600
O1228       O  0.64819189  0.37591578  0.55885776    -0.84200
C1229       C  0.61035075  0.35061700  0.56499661     1.03500
O1230       O  0.59139683  0.32161001  0.53690688    -0.77000
O1231       O  0.62343852  0.27204920  0.55893865    -0.77200
C1232       C  0.64869595  0.25895234  0.56128922     1.03400
Cr1233     Cr  0.70810820  0.32289245  0.49553317     1.93700
Cr1234     Cr  0.67637210  0.38349374  0.49769054     1.93200
Cr1235     Cr  0.61408210  0.29239751  0.49948006     1.39100
O1236       O  0.66627085  0.33297392  0.49735356    -1.22200
C1237       C  0.00207884  0.46143770  0.75208234     0.03100
C1238       C  0.96436062  0.46283719  0.75268738     0.03100
C1239       C  0.96488270  0.50053651  0.75117478     0.03100
C1240       C  0.00419970  0.03727960  0.74934031     0.03100
C1241       C  0.54199563  0.03550744  0.74709763     0.03100
C1242       C  0.54091213  0.99767748  0.74898619     0.03100
C1243       C  0.62894887  0.47845619  0.78706591     0.04000
C1244       C  0.58997644  0.47694852  0.78445786    -0.12200
C1245       C  0.58084809  0.99630843  0.74860936     0.01500
C1246       C  0.60937078  0.01398643  0.71206124    -0.10700
C1247       C  0.64808364  0.01592223  0.71335010     0.04000
C1248       C  0.65866926  0.00033866  0.75190878    -0.10100
H1249       H  0.56599459  0.46003756  0.80981775     0.09600
H1250       H  0.60195783  0.02738049  0.68308679     0.07100
H1251       H  0.69034857  0.00637041  0.75453987     0.06900
C1252       C  0.88047834  0.02840375  0.78115456     0.04000
C1253       C  0.85150805  0.00735852  0.74505458    -0.12200
C1254       C  0.85763871  0.48249145  0.71330333     0.01500
C1255       C  0.89419694  0.47992249  0.71606471    -0.10700
C1256       C  0.92455548  0.00154583  0.75014948     0.04000
C1257       C  0.91757965  0.02623036  0.78160331    -0.10100
H1258       H  0.82167043  0.00606719  0.74463459     0.09600
H1259       H  0.89959303  0.46192539  0.69060233     0.07100
H1260       H  0.94145188  0.04375387  0.80688567     0.06900
C1261       C  0.98821264  0.12333897  0.70449061     0.04000
C1262       C  0.51798139  0.15535757  0.73265936    -0.12200
C1263       C  0.53493715  0.14789381  0.77259713     0.01500
C1264       C  0.52934761  0.10903499  0.77911458    -0.10700
C1265       C  0.50610538  0.07784662  0.74699526     0.04000
C1266       C  0.98342790  0.08482443  0.71272811    -0.10100
H1267       H  0.52689099  0.18630127  0.72549258     0.09600
H1268       H  0.54296352  0.10309368  0.80922051     0.07100
H1269       H  0.96177842  0.05918628  0.69364506     0.06900
C1270       C  0.63978836  0.12776830  0.78874901     0.04000
C1271       C  0.60835434  0.08730872  0.78432460    -0.12200
C1272       C  0.58286425  0.07411981  0.74518238     0.01500
C1273       C  0.59414501  0.09941347  0.70616858    -0.10700
C1274       C  0.62317573  0.14129482  0.70937683     0.04000
C1275       C  0.64417261  0.15490107  0.75286830    -0.10100
H1276       H  0.60284778  0.06577548  0.81159008     0.09600
H1277       H  0.57973278  0.08508669  0.67392166     0.07100
H1278       H  0.66388293  0.18643583  0.76004618     0.06900
C1279       C  0.52472362  0.37722243  0.71966152     0.04000
C1280       C  0.52065330  0.41174280  0.71713940    -0.12200
C1281       C  0.50120101  0.42151260  0.75309151     0.01500
C1282       C  0.98258121  0.39406498  0.79027453    -0.10700
C1283       C  0.98619187  0.35893454  0.79357844     0.04000
C1284       C  0.50929659  0.35241593  0.75887670    -0.10100
H1285       H  0.53370886  0.43175110  0.68755020     0.09600
H1286       H  0.96548369  0.40035080  0.81653178     0.07100
H1287       H  0.51441552  0.32703026  0.76160091     0.06900
C1288       C  0.87759338  0.35654424  0.72490745     0.04000
C1289       C  0.91263192  0.39508589  0.72019436    -0.12200
C1290       C  0.92438148  0.42403313  0.75601093     0.01500
C1291       C  0.90091815  0.41429384  0.79726255    -0.10700
C1292       C  0.86573633  0.37605817  0.80321405     0.04000
C1293       C  0.85440885  0.34730679  0.76683016    -0.10100
H1294       H  0.93164529  0.40240067  0.68895967     0.09600
H1295       H  0.91067488  0.43635439  0.82523733     0.07100
H1296       H  0.82635175  0.31839943  0.77034808     0.06900
C1297       C  0.63013213  0.17027211  0.66868371    -0.04500
C1298       C  0.66987792  0.20432963  0.65833815    -0.01600
C1299       C  0.67588767  0.22683412  0.61749194     0.03400
C1300       C  0.64202143  0.22713216  0.59605627    -0.04500
C1301       C  0.60190619  0.19594918  0.60757887    -0.01600
C1302       C  0.59699677  0.16507637  0.63847632     0.03400
C1303       C  0.70342556  0.22339193  0.69139590     0.38000
C1304       C  0.56572846  0.19324838  0.58457633     0.38000
C1305       C  0.55976973  0.12694384  0.63262188     0.36400
C1306       C  0.71743119  0.25014552  0.59868960     0.36400
N1307       N  0.53161209  0.09582357  0.62403490    -0.38400
N1308       N  0.75057331  0.26828915  0.58344880    -0.38400
N1309       N  0.53681132  0.19123860  0.56668389    -0.37800
N1310       N  0.73055065  0.24408715  0.71586025    -0.37800
C1311       C  0.58732170  0.35526436  0.60470783    -0.04500
C1312       C  0.55225909  0.35969994  0.59650513    -0.01600
C1313       C  0.53042432  0.36441689  0.63426745     0.03400
C1314       C  0.54480279  0.36695349  0.68054062    -0.04500
C1315       C  0.57885026  0.36061449  0.68875110    -0.01600
C1316       C  0.60008372  0.35502913  0.65093292     0.03400
C1317       C  0.54068724  0.36294539  0.54913038     0.38000
C1318       C  0.59153037  0.35852252  0.73595388     0.38000
C1319       C  0.63505555  0.34890569  0.65980679     0.36400
C1320       C  0.49229809  0.36529160  0.62536366     0.36400
N1321       N  0.66287442  0.34406689  0.66762240    -0.38400
N1322       N  0.46177820  0.36566598  0.61800356    -0.38400
N1323       N  0.60054057  0.35515489  0.77357998    -0.37800
N1324       N  0.53179303  0.36663808  0.51158081    -0.37800
C1325       C  0.82561805  0.45891213  0.67670562    -0.04500
C1326       C  0.81795662  0.47884985  0.64027209    -0.01600
C1327       C  0.79136462  0.45687992  0.60280960     0.03400
C1328       C  0.77063542  0.41392294  0.60165687    -0.04500
C1329       C  0.77475885  0.39427311  0.64135130    -0.01600
C1330       C  0.80171895  0.41652440  0.67835910     0.03400
C1331       C  0.83476272  0.02212268  0.64285726     0.38000
C1332       C  0.74835933  0.35128652  0.64737491     0.38000
C1333       C  0.80010738  0.39515608  0.72029840     0.36400
C1334       C  0.78475480  0.47954417  0.56697494     0.36400
N1335       N  0.79422983  0.37494059  0.75241243    -0.38400
N1336       N  0.77990650  0.49903595  0.53983015    -0.38400
N1337       N  0.72699145  0.31744039  0.65495446    -0.37800
N1338       N  0.84625218  0.05621789  0.64588771    -0.37800
C1339       C  0.91957140  0.15016457  0.59862971    -0.04500
C1340       C  0.92177709  0.11468298  0.59434514    -0.01600
C1341       C  0.94417134  0.10543418  0.62716099     0.03400
C1342       C  0.96239608  0.13057810  0.66781363    -0.04500
C1343       C  0.95535279  0.16403928  0.67325043    -0.01600
C1344       C  0.93891619  0.17614884  0.63646714     0.03400
C1345       C  0.90054366  0.08722573  0.55555662     0.38000
C1346       C  0.95939894  0.18313584  0.71836544     0.38000
C1347       C  0.94252182  0.21572554  0.63717903     0.36400
C1348       C  0.94504918  0.06855278  0.61774175     0.36400
N1349       N  0.94655127  0.24775656  0.63630047    -0.38400
N1350       N  0.94387347  0.03838557  0.60867577    -0.38400
N1351       N  0.96267491  0.19786553  0.75470569    -0.37800
N1352       N  0.88352818  0.06530788  0.52494481    -0.37800
C1353       C  0.73024892  0.08730797  0.60207056    -0.04500
C1354       C  0.72910503  0.10462630  0.64566759    -0.01600
C1355       C  0.70714272  0.07972077  0.68346765     0.03400
C1356       C  0.67902617  0.03881170  0.67623240    -0.04500
C1357       C  0.67761835  0.02142273  0.63236484    -0.01600
C1358       C  0.70467407  0.04494712  0.59610333     0.03400
C1359       C  0.74713409  0.14775815  0.65055750     0.38000
C1360       C  0.64910309  0.47907364  0.62560802     0.38000
C1361       C  0.70417020  0.02539036  0.55227718     0.36400
C1362       C  0.71600548  0.09424367  0.73089976     0.36400
N1363       N  0.70344249  0.00935954  0.51753263    -0.38400
N1364       N  0.72274577  0.10177310  0.77009122    -0.38400
N1365       N  0.62608749  0.44526299  0.61964918    -0.37800
N1366       N  0.76006326  0.18221146  0.65142021    -0.37800
C1367       C  0.86595991  0.32625736  0.68569039    -0.04500
C1368       C  0.86030230  0.33596274  0.63964640    -0.01600
C1369       C  0.85101315  0.30795399  0.60274449     0.03400
C1370       C  0.85214536  0.27192470  0.61004348    -0.04500
C1371       C  0.85666452  0.26166268  0.65585166    -0.01600
C1372       C  0.86142791  0.28771425  0.69342824     0.03400
C1373       C  0.86376376  0.37465824  0.62961437     0.38000
C1374       C  0.85356235  0.22284739  0.66487520     0.38000
C1375       C  0.85985521  0.27340501  0.73994465     0.36400
C1376       C  0.83772810  0.31549481  0.55835105     0.36400
N1377       N  0.85678977  0.25969347  0.77639290    -0.38400
N1378       N  0.82481048  0.32142061  0.52444826    -0.38400
N1379       N  0.85055236  0.19175572  0.67226963    -0.37800
N1380       N  0.86739053  0.40566803  0.62036630    -0.37800
C1381       C  0.52994837  0.36081903  0.33047836    -0.04500
C1382       C  0.51022943  0.33606565  0.36913507    -0.01600
C1383       C  0.53353368  0.32820396  0.40215616     0.03400
C1384       C  0.57731834  0.34764858  0.39828538    -0.04500
C1385       C  0.59678045  0.37075028  0.35823715    -0.01600
C1386       C  0.57252406  0.37476930  0.32328651     0.03400
C1387       C  0.46581908  0.31658671  0.37307934     0.38000
C1388       C  0.64128813  0.38879966  0.35192869     0.38000
C1389       C  0.58845721  0.38617970  0.27659375     0.36400
C1390       C  0.51245077  0.29955622  0.43939172     0.36400
N1391       N  0.59662636  0.39136779  0.23742102    -0.38400
N1392       N  0.49564592  0.27642373  0.46884588    -0.38400
N1393       N  0.67687515  0.40333158  0.34698473    -0.37800
N1394       N  0.43009683  0.30015602  0.37567694    -0.37800
C1395       C  0.86223080  0.33428303  0.33753570    -0.04500
C1396       C  0.84932503  0.29368742  0.32625347    -0.01600
C1397       C  0.83588668  0.26476219  0.36161565     0.03400
C1398       C  0.84686061  0.27725521  0.40826838    -0.04500
C1399       C  0.86715013  0.31908588  0.41879819    -0.01600
C1400       C  0.86935995  0.34651681  0.38474939     0.03400
C1401       C  0.85789834  0.28318564  0.28028753     0.38000
C1402       C  0.89163995  0.33492480  0.46082503     0.38000
C1403       C  0.88006522  0.38717536  0.39826863     0.36400
C1404       C  0.81623247  0.22255505  0.34932334     0.36400
N1405       N  0.88818353  0.41953037  0.40900340    -0.38400
N1406       N  0.80070408  0.18859977  0.34074046    -0.38400
N1407       N  0.91291175  0.34822483  0.49313023    -0.37800
N1408       N  0.86668885  0.27540087  0.24435743    -0.37800
C1409       C  0.95420425  0.13105090  0.32409494    -0.04500
C1410       C  0.93172739  0.15171820  0.31510251    -0.01600
C1411       C  0.92102925  0.16982942  0.35186170     0.03400
C1412       C  0.92555717  0.16174761  0.39860013    -0.04500
C1413       C  0.94918931  0.14270314  0.40797445    -0.01600
C1414       C  0.96467257  0.12880520  0.37110092     0.03400
C1415       C  0.91904062  0.15468071  0.26814694     0.38000
C1416       C  0.96129442  0.14101415  0.45548584     0.38000
C1417       C  0.99332959  0.11440987  0.38186610     0.36400
C1418       C  0.90639211  0.19764347  0.34100298     0.36400
N1419       N  0.51634412  0.10318635  0.39073387    -0.38400
N1420       N  0.89557275  0.22022007  0.33087652    -0.38400
N1421       N  0.97241555  0.14026891  0.49289745    -0.37800
N1422       N  0.90990499  0.15821770  0.23065589    -0.37800
C1423       C  0.62769607  0.17253633  0.32416601    -0.04500
C1424       C  0.63908484  0.21296481  0.31303048    -0.01600
C1425       C  0.64550278  0.24102467  0.34877304     0.03400
C1426       C  0.64421009  0.23033323  0.39591546    -0.04500
C1427       C  0.63370197  0.19051401  0.40738503    -0.01600
C1428       C  0.62547889  0.16174774  0.37178855     0.03400
C1429       C  0.64555729  0.22665438  0.26498652     0.38000
C1430       C  0.63164165  0.17914469  0.45600608     0.38000
C1431       C  0.61672631  0.12159653  0.38451383     0.36400
C1432       C  0.65108213  0.28030574  0.33698065     0.36400
N1433       N  0.60946652  0.08953342  0.39485745    -0.38400
N1434       N  0.65503140  0.31137014  0.32731653    -0.38400
N1435       N  0.62982054  0.16997337  0.49473788    -0.37800
N1436       N  0.65208269  0.23810346  0.22687753    -0.37800
C1437       C  0.67791791  0.04492033  0.32394086    -0.04500
C1438       C  0.66405692  0.04011403  0.37101481    -0.01600
C1439       C  0.69151072  0.06407813  0.40680230     0.03400
C1440       C  0.73458216  0.08812123  0.39753272    -0.04500
C1441       C  0.74906984  0.08857459  0.35173446    -0.01600
C1442       C  0.72088770  0.07036523  0.31473302     0.03400
C1443       C  0.62225815  0.00903346  0.38340562     0.38000
C1444       C  0.79307289  0.10750449  0.34211015     0.38000
C1445       C  0.73658388  0.07908379  0.26722609     0.36400
C1446       C  0.67516421  0.06303725  0.45326051     0.36400
N1447       N  0.74854608  0.08540055  0.22910897    -0.38400
N1448       N  0.66152289  0.06246333  0.48991598    -0.38400
N1449       N  0.82811001  0.12184080  0.33393237    -0.37800
N1450       N  0.58904116  0.98406120  0.39330680    -0.37800
C1451       C  0.76549076  0.41277881  0.38902186    -0.04500
C1452       C  0.76939926  0.39001721  0.35223548    -0.01600
C1453       C  0.79036088  0.40928954  0.31096433     0.03400
C1454       C  0.81711977  0.45117572  0.31053428    -0.04500
C1455       C  0.81614577  0.47421067  0.34882496    -0.01600
C1456       C  0.78717361  0.45528558  0.38544559     0.03400
C1457       C  0.75378636  0.34718000  0.35663026     0.38000
C1458       C  0.84495873  0.01678621  0.35068352     0.38000
C1459       C  0.77948703  0.47979034  0.41834788     0.36400
C1460       C  0.77924578  0.38668739  0.26785127     0.36400
N1461       N  0.77294604  0.50032409  0.44268912    -0.38400
N1462       N  0.76714470  0.36817560  0.23378686    -0.38400
N1463       N  0.86833158  0.05091994  0.35363894    -0.37800
N1464       N  0.74364442  0.31333946  0.35927219    -0.37800
C1465       C  0.86981090  0.04792661  0.82170384    -0.04500
C1466       C  0.84651168  0.06814336  0.81519746    -0.01600
C1467       C  0.83504279  0.08385525  0.85395332     0.03400
C1468       C  0.85283395  0.08679323  0.89805422    -0.04500
C1469       C  0.87852825  0.06975106  0.90426234    -0.01600
C1470       C  0.88260887  0.04635643  0.86833127     0.03400
C1471       C  0.83582427  0.07542132  0.76910908     0.38000
C1472       C  0.90325237  0.07855940  0.94634353     0.38000
C1473       C  0.89877123  0.02002214  0.88095302     0.36400
C1474       C  0.80540368  0.09778169  0.84817904     0.36400
N1475       N  0.91152605  0.99902498  0.89163612    -0.38400
N1476       N  0.78101597  0.10799149  0.84355720    -0.38400
N1477       N  0.92370953  0.08625464  0.97938374    -0.37800
N1478       N  0.82659784  0.08206366  0.73311700    -0.37800
C1479       C  0.86186579  0.03383515  0.16461726    -0.04500
C1480       C  0.84720345  0.05995287  0.18079106    -0.01600
C1481       C  0.83964610  0.08376327  0.14914589     0.03400
C1482       C  0.84061892  0.07774374  0.10090580    -0.04500
C1483       C  0.84924583  0.04806209  0.08481753    -0.01600
C1484       C  0.86513095  0.03040666  0.11534142     0.03400
C1485       C  0.84018413  0.06317832  0.23000575     0.38000
C1486       C  0.83872814  0.03348341  0.03714922     0.38000
C1487       C  0.88732456  0.51315404  0.09296137     0.36400
C1488       C  0.83214744  0.11512020  0.16655576     0.36400
N1489       N  0.90569040  0.50296905  0.06883921    -0.38400
N1490       N  0.82716050  0.14038595  0.18207444    -0.38400
N1491       N  0.82844261  0.02054113  0.99992156    -0.37800
N1492       N  0.83312273  0.06516684  0.26897740    -0.37800
C1493       C  0.72425386  0.14782916  0.90261361    -0.04500
C1494       C  0.73962768  0.16858954  0.86077011    -0.01600
C1495       C  0.71244789  0.16430657  0.82435694     0.03400
C1496       C  0.66862765  0.14052015  0.83026741    -0.04500
C1497       C  0.65340370  0.12339558  0.87502001    -0.01600
C1498       C  0.68103183  0.12404244  0.90931068     0.03400
C1499       C  0.78415114  0.18926117  0.85286664     0.38000
C1500       C  0.60956943  0.10577107  0.88646425     0.38000
C1501       C  0.66498508  0.09787463  0.94954407     0.36400
C1502       C  0.73160124  0.17959717  0.77969338     0.36400
N1503       N  0.65199596  0.07635632  0.98113572    -0.38400
N1504       N  0.75129762  0.19082147  0.74607403    -0.38400
N1505       N  0.57465742  0.09182804  0.89577721    -0.37800
N1506       N  0.81951253  0.20348287  0.84695898    -0.37800
C1507       C  0.92260444  0.26970314  0.90318042    -0.04500
C1508       C  0.94345738  0.31117410  0.91422400    -0.01600
C1509       C  0.96549375  0.34022264  0.87930589     0.03400
C1510       C  0.96534786  0.32820020  0.83212971    -0.04500
C1511       C  0.94518677  0.28604966  0.82203636    -0.01600
C1512       C  0.92546734  0.25731165  0.85765788     0.03400
C1513       C  0.94128307  0.32405263  0.96147119     0.38000
C1514       C  0.94184188  0.27142441  0.77454633     0.38000
C1515       C  0.90750431  0.21469191  0.84718615     0.36400
C1516       C  0.98826263  0.38235334  0.89266930     0.36400
N1517       N  0.89346873  0.18082612  0.83840160    -0.38400
N1518       N  0.50577013  0.41596039  0.90358081    -0.38400
N1519       N  0.93892710  0.25994259  0.73652933    -0.37800
N1520       N  0.93956616  0.33452380  0.99904739    -0.37800
C1521       C  0.73207936  0.16192882  0.10186388    -0.04500
C1522       C  0.69024034  0.14919834  0.09181444    -0.01600
C1523       C  0.66045546  0.13571490  0.12796437     0.03400
C1524       C  0.67296094  0.13710267  0.17487546    -0.04500
C1525       C  0.71603976  0.15476601  0.18482375    -0.01600
C1526       C  0.74547158  0.16836446  0.14840873     0.03400
C1527       C  0.67933353  0.15626629  0.04573503     0.38000
C1528       C  0.73028536  0.15877907  0.23244948     0.38000
C1529       C  0.78952051  0.19150283  0.15856387     0.36400
C1530       C  0.61733979  0.12167022  0.11651849     0.36400
N1531       N  0.82465774  0.21139862  0.16617639    -0.38400
N1532       N  0.58297995  0.10995864  0.10662812    -0.38400
N1533       N  0.74082462  0.16236864  0.27089244    -0.37800
N1534       N  0.67073943  0.16394928  0.00996280    -0.37800
C1535       C  0.91439543  0.26439906  0.10725899    -0.04500
C1536       C  0.90482000  0.29535078  0.11604924    -0.01600
C1537       C  0.93160726  0.32908723  0.14285180     0.03400
C1538       C  0.96126345  0.32781332  0.17317417    -0.04500
C1539       C  0.97007639  0.29577421  0.16578899    -0.01600
C1540       C  0.94746286  0.26488270  0.13249362     0.03400
C1541       C  0.86757790  0.29363495  0.09697748     0.38000
C1542       C  0.50501944  0.29617830  0.18896334     0.38000
C1543       C  0.95882016  0.23397936  0.12435472     0.36400
C1544       C  0.93453317  0.36641860  0.12785570     0.36400
N1545       N  0.96793889  0.20936282  0.11810704    -0.38400
N1546       N  0.93736264  0.39516570  0.11112245    -0.38400
N1547       N  0.53250304  0.29612148  0.20791078    -0.37800
N1548       N  0.83800507  0.29250109  0.08209129    -0.37800
C1549       C  0.55309884  0.17879736  0.81112782    -0.04500
C1550       C  0.52835382  0.17599867  0.85016333    -0.01600
C1551       C  0.54573808  0.20158017  0.88947552     0.03400
C1552       C  0.58878846  0.23031393  0.89047077    -0.04500
C1553       C  0.61232949  0.23611119  0.84890099    -0.01600
C1554       C  0.59380036  0.21177444  0.80890270     0.03400
C1555       C  0.98388090  0.15008652  0.84708853     0.38000
C1556       C  0.65513515  0.26850495  0.84596947     0.38000
C1557       C  0.61427292  0.22446278  0.76413055     0.36400
C1558       C  0.51878498  0.19833216  0.92820582     0.36400
N1559       N  0.63025781  0.23682482  0.72852273    -0.38400
N1560       N  0.49687945  0.19579173  0.95865115    -0.38400
N1561       N  0.68932989  0.29414564  0.84327104    -0.37800
N1562       N  0.94828201  0.13080146  0.84298921    -0.37800
C1563       C  0.53421584  0.16796347  0.17457015    -0.04500
C1564       C  0.52896238  0.15548048  0.12724671    -0.01600
C1565       C  0.54970485  0.18360117  0.09146375     0.03400
C1566       C  0.57341353  0.22517726  0.10194930    -0.04500
C1567       C  0.57676966  0.23814117  0.14870260    -0.01600
C1568       C  0.55789332  0.20991434  0.18489696     0.07000
C1569       C  0.00106898  0.11379758  0.11463357     0.38000
C1570       C  0.60109530  0.28058579  0.16020136     0.38000
C1571       C  0.56326271  0.22486359  0.23261234     0.36400
C1572       C  0.54655765  0.16925545  0.04374704     0.36400
N1573       N  0.56680760  0.23703751  0.27043761    -0.38400
N1574       N  0.54433164  0.15712328  0.00611096    -0.38400
N1575       N  0.61989800  0.31428879  0.17030313    -0.37800
N1576       N  0.97941798  0.08053512  0.10415458    -0.37800
C1577       C  0.63737186  0.45595506  0.82538796    -0.04500
C1578       C  0.61774761  0.45013171  0.86985355    -0.01600
C1579       C  0.61625340  0.42096195  0.90089877     0.03400
C1580       C  0.64308519  0.40514981  0.89446285    -0.04500
C1581       C  0.66726500  0.41462077  0.85342458    -0.01600
C1582       C  0.66229170  0.43733857  0.81763629     0.03400
C1583       C  0.60280919  0.47673893  0.88631186     0.38000
C1584       C  0.69583706  0.39925015  0.84689896     0.38000
C1585       C  0.68155468  0.43918020  0.77272261     0.36400
C1586       C  0.58658572  0.40671425  0.93917581     0.36400
N1587       N  0.69704932  0.44015105  0.73712501    -0.38400
N1588       N  0.56263892  0.39466353  0.96943975    -0.38400
N1589       N  0.71888532  0.38737129  0.84127491    -0.37800
N1590       N  0.59131615  0.49826052  0.89960824    -0.37800
C1591       C  0.83891845  0.36744350  0.84597508    -0.04500
C1592       C  0.82338753  0.33093079  0.87071012    -0.01600
C1593       C  0.79065810  0.31951677  0.90333024     0.03400
C1594       C  0.77845189  0.34775377  0.91701325    -0.04500
C1595       C  0.80179419  0.38751275  0.90108376    -0.01600
C1596       C  0.82716857  0.39537873  0.86199201     0.03400
C1597       C  0.84318249  0.30695536  0.86590701     0.38000
C1598       C  0.79765539  0.42018288  0.92229070     0.38000
C1599       C  0.83073064  0.42715924  0.83337687     0.36400
C1600       C  0.76939878  0.27890540  0.92157124     0.36400
N1601       N  0.82649951  0.45048250  0.81279069    -0.38400
N1602       N  0.75196442  0.24646040  0.93608494    -0.38400
N1603       N  0.79420009  0.44616298  0.93867816    -0.37800
N1604       N  0.86003808  0.28845261  0.86457163    -0.37800
C1605       C  0.65457031  0.41904758  0.09903127    -0.04500
C1606       C  0.67030726  0.42016023  0.14404629    -0.01600
C1607       C  0.66618704  0.44353578  0.18005162     0.03400
C1608       C  0.64373729  0.46461593  0.17232857    -0.04500
C1609       C  0.63440345  0.46848688  0.12527958    -0.01600
C1610       C  0.64080418  0.44665209  0.08892817     0.03400
C1611       C  0.69174295  0.39776148  0.15349513     0.38000
C1612       C  0.62204280  0.49794712  0.11336337     0.38000
C1613       C  0.64011755  0.45789487  0.04099030     0.36400
C1614       C  0.68531874  0.44468000  0.22448437     0.36400
N1615       N  0.64183068  0.46966090  0.00351282    -0.38400
N1616       N  0.70188490  0.44571600  0.25900460    -0.38400
N1617       N  0.61090413  0.02025799  0.10348349    -0.37800
N1618       N  0.70903080  0.38022216  0.16147678    -0.37800
C1619       C  0.82758518  0.35827224  0.17588635    -0.04500
C1620       C  0.82936684  0.38837311  0.14565404    -0.01600
C1621       C  0.79580466  0.38126782  0.11681675     0.03400
C1622       C  0.76242558  0.34171789  0.10953851    -0.04500
C1623       C  0.76147416  0.31029303  0.13644965    -0.01600
C1624       C  0.79310233  0.31849473  0.16978882     0.03400
C1625       C  0.86716551  0.42599606  0.14030595     0.38000
C1626       C  0.72741374  0.26929649  0.13113556     0.38000
C1627       C  0.78916986  0.28491941  0.19674560     0.36400
C1628       C  0.79501509  0.41576259  0.09689184     0.36400
N1629       N  0.78324755  0.25703555  0.21816525    -0.38400
N1630       N  0.79339085  0.44279060  0.08128679    -0.38400
N1631       N  0.70015540  0.23663150  0.12739337    -0.37800
N1632       N  0.89959361  0.45397867  0.13568301    -0.37800
O1633       O  0.64598222  0.76414355  0.94277589    -0.84500
O1634       O  0.72747124  0.80911856  0.97441317    -0.81500
C1635       C  0.74077926  0.83691803  0.94484461     0.99000
O1636       O  0.72319068  0.85763835  0.94131671    -0.81600
O1637       O  0.68063415  0.89770590  0.95720808    -0.84200
C1638       C  0.64826363  0.88145045  0.93241715     1.03500
O1639       O  0.61947765  0.84627311  0.94088168    -0.77000
O1640       O  0.58939114  0.76687851  0.96048958    -0.77200
C1641       C  0.60904388  0.75533055  0.93334697     1.03400
O1642       O  0.61795941  0.74582357  0.03617170    -0.84500
O1643       O  0.69776974  0.80081551  0.06759112    -0.81600
C1644       C  0.73167588  0.83375303  0.07103987     0.99000
O1645       O  0.74117332  0.86033432  0.03979928    -0.81600
O1646       O  0.69129812  0.89330830  0.05525332    -0.84200
C1647       C  0.65698555  0.89193156  0.06244712     1.03500
O1648       O  0.62474216  0.86763950  0.03935972    -0.77000
O1649       O  0.59716604  0.78719659  0.06063731    -0.77200
C1650       C  0.59737531  0.75442068  0.06447952     1.03400
Cr1651     Cr  0.67131313  0.78315786  0.00504154     1.93700
Cr1652     Cr  0.70589559  0.87357578  0.99853688     1.93200
Cr1653     Cr  0.61140713  0.81742942  0.00079213     1.39100
O1654       O  0.66254726  0.82497729  0.00210280    -1.22200
O1655       O  0.79436700  0.69730819  0.05788356    -0.84500
O1656       O  0.87653250  0.74553186  0.03564802    -0.81500
C1657       C  0.89301674  0.73556522  0.06768980     0.99000
O1658       O  0.89237503  0.70231295  0.06466954    -0.81600
O1659       O  0.86675226  0.62366975  0.03857417    -0.84200
C1660       C  0.83692685  0.60451069  0.06651214     1.03500
O1661       O  0.80392946  0.60594506  0.06261290    -0.77000
O1662       O  0.75124721  0.63410922  0.03914113    -0.77200
C1663       C  0.76074562  0.66498604  0.06406623     1.03400
O1664       O  0.77217086  0.68445811  0.96214051    -0.84500
O1665       O  0.85678228  0.72825052  0.93898302    -0.81600
C1666       C  0.89512597  0.73947114  0.93788938     0.99000
O1667       O  0.91059188  0.72641353  0.96769176    -0.81600
O1668       O  0.87501334  0.64605775  0.94316997    -0.84200
C1669       C  0.84698780  0.60997645  0.93665812     1.03500
O1670       O  0.81500958  0.59343666  0.96303310    -0.77000
O1671       O  0.76429852  0.62525021  0.94320825    -0.77200
C1672       C  0.75442393  0.65216897  0.93860186     1.03400
Cr1673     Cr  0.82535873  0.71057575  0.99853646     1.93700
Cr1674     Cr  0.88225075  0.67416998  0.00342219     1.93200
Cr1675     Cr  0.78728762  0.61839346  0.00197177     1.39100
O1676       O  0.83130879  0.66750434  0.00064767    -1.22200
C1677       C  0.00178843  0.96162760  0.25069590     0.03100
C1678       C  0.96261094  0.96004511  0.25114746     0.03100
C1679       C  0.96019763  0.99626675  0.24771352     0.03100
C1680       C  0.99735656  0.53428869  0.24883991     0.03100
C1681       C  0.53684801  0.53571770  0.24894888     0.03100
C1682       C  0.53911034  0.99927224  0.24833762     0.03100
C1683       C  0.87016485  0.50937035  0.19980554     0.04000
C1684       C  0.90998862  0.51325855  0.20512627    -0.12200
C1685       C  0.91860966  0.99425657  0.24260202     0.01500
C1686       C  0.88767537  0.97432450  0.27660830    -0.10700
C1687       C  0.84802790  0.96993554  0.27174489     0.04000
C1688       C  0.83898548  0.98568646  0.23231460    -0.10100
H1689       H  0.93424668  0.53091088  0.18019150     0.09600
H1690       H  0.89457958  0.96249860  0.30744870     0.07100
H1691       H  0.80805360  0.98178647  0.22875985     0.06900
C1692       C  0.63109391  0.98362427  0.21185117     0.04000
C1693       C  0.59142305  0.98106888  0.21265027    -0.12200
C1694       C  0.58044119  0.00036210  0.24798272     0.01500
C1695       C  0.60884624  0.52094788  0.28347814    -0.10700
C1696       C  0.64750563  0.52251225  0.28497488     0.04000
C1697       C  0.65832457  0.00450206  0.24873400    -0.10100
H1698       H  0.56917192  0.96451886  0.18545375     0.09600
H1699       H  0.60088648  0.53622796  0.31017411     0.07100
H1700       H  0.68861153  0.00740671  0.24912356     0.06900
C1701       C  0.64189038  0.62438387  0.21364854     0.04000
C1702       C  0.60567899  0.58641745  0.21376577    -0.12200
C1703       C  0.57607053  0.57577143  0.24977570     0.01500
C1704       C  0.58326150  0.60378295  0.28588578    -0.10700
C1705       C  0.61947897  0.64188767  0.28630773     0.04000
C1706       C  0.64840333  0.65140446  0.25019033    -0.10100
H1707       H  0.60033146  0.56525797  0.18567249     0.09600
H1708       H  0.56030482  0.59599781  0.31330606     0.07100
H1709       H  0.67641170  0.68048685  0.25031914     0.06900
C1710       C  0.51402622  0.63773891  0.21294179     0.04000
C1711       C  0.51556144  0.60165268  0.21392895    -0.12200
C1712       C  0.99508478  0.57280307  0.24908992     0.01500
C1713       C  0.97332245  0.58117333  0.28444417    -0.10700
C1714       C  0.97261706  0.61797961  0.28481303     0.04000
C1715       C  0.99232958  0.64493216  0.24821421    -0.10100
H1716       H  0.53280352  0.59586810  0.18724359     0.09600
H1717       H  0.95767041  0.55940498  0.31188755     0.07100
H1718       H  0.99142833  0.67263629  0.24748809     0.06900
C1719       C  0.87218631  0.86348579  0.29901883     0.04000
C1720       C  0.91115222  0.89866798  0.29626955    -0.12200
C1721       C  0.92368710  0.91987142  0.25439867     0.01500
C1722       C  0.89981613  0.90199622  0.21470684    -0.10700
C1723       C  0.85804676  0.87023427  0.21709314     0.04000
C1724       C  0.84439529  0.85267818  0.26134598    -0.10100
H1725       H  0.93231083  0.90875477  0.32558534     0.09600
H1726       H  0.91539038  0.91367417  0.18258238     0.07100
H1727       H  0.81268475  0.82922178  0.26698285     0.06900
C1728       C  0.50722827  0.87044506  0.29425655     0.04000
C1729       C  0.98739780  0.84360309  0.25699159    -0.12200
C1730       C  0.98012931  0.85713935  0.21392199     0.01500
C1731       C  0.98958169  0.89777748  0.21197830    -0.10700
C1732       C  0.00252379  0.92281456  0.25157804     0.04000
C1733       C  0.51318406  0.90968597  0.29206787    -0.10100
H1734       H  0.97967286  0.81258241  0.26139125     0.09600
H1735       H  0.98750345  0.91130512  0.18020658     0.07100
H1736       H  0.52675156  0.93011910  0.32138588     0.06900
O1737       O  0.76926608  0.64952834  0.56084358    -0.84500
O1738       O  0.81688549  0.73095623  0.54351834    -0.81500
C1739       C  0.84803304  0.74443364  0.57029945     0.99000
O1740       O  0.87587429  0.73483688  0.56401883    -0.81600
O1741       O  0.91164055  0.68877837  0.53870412    -0.84200
C1742       C  0.89443364  0.65808225  0.56455920     1.03500
O1743       O  0.85645673  0.63255056  0.55989923    -0.77000
O1744       O  0.77399521  0.59796668  0.53558006    -0.77200
C1745       C  0.75919229  0.61293742  0.56418539     1.03400
O1746       O  0.75485975  0.63295920  0.46268980    -0.84500
O1747       O  0.80843312  0.71396426  0.44603972    -0.81600
C1748       C  0.84222894  0.74679757  0.44315602     0.99000
O1749       O  0.87268087  0.75366508  0.46881120    -0.81600
O1750       O  0.90116184  0.70087385  0.44179289    -0.84200
C1751       C  0.90124131  0.66794468  0.43660649     1.03500
O1752       O  0.87989366  0.63881392  0.46370568    -0.77000
O1753       O  0.79790748  0.61227219  0.43965470    -0.77200
C1754       C  0.76407318  0.61241832  0.43507880     1.03400
Cr1755     Cr  0.79091555  0.68117728  0.50309055     1.93700
Cr1756     Cr  0.88616249  0.71614138  0.50308372     1.93200
Cr1757     Cr  0.82769614  0.62455489  0.49981891     1.39100
O1758       O  0.83490546  0.67407361  0.50168155    -1.22200
O1759       O  0.68729838  0.79168671  0.43620515    -0.84500
O1760       O  0.74622320  0.87042109  0.45581119    -0.81500
C1761       C  0.73789880  0.89176264  0.42917473     0.99000
O1762       O  0.70638029  0.89557051  0.43669934    -0.81600
O1763       O  0.62544200  0.87200879  0.46106526    -0.84200
C1764       C  0.60273150  0.84258222  0.43454877     1.03500
O1765       O  0.60026533  0.80875527  0.43984621    -0.77000
O1766       O  0.62398834  0.75331031  0.46266250    -0.77200
C1767       C  0.65224255  0.76013992  0.43331128     1.03400
O1768       O  0.67928629  0.77209426  0.53343638    -0.84500
O1769       O  0.73232146  0.85318375  0.55472947    -0.81600
C1770       C  0.74291960  0.88990562  0.56106053     0.99000
O1771       O  0.72997290  0.90665209  0.53310339    -0.81600
O1772       O  0.64855372  0.87617111  0.55860449    -0.84200
C1773       C  0.61069369  0.85092911  0.56479087     1.03500
O1774       O  0.59168307  0.82196451  0.53665798    -0.77000
O1775       O  0.62350958  0.77230312  0.55892772    -0.77200
C1776       C  0.64866500  0.75909216  0.56132403     1.03400
Cr1777     Cr  0.70815801  0.82275700  0.49533278     1.93700
Cr1778     Cr  0.67664875  0.88354913  0.49735844     1.93200
Cr1779     Cr  0.61420387  0.79253107  0.49937876     1.39100
O1780       O  0.66643300  0.83299653  0.49716060    -1.22200
C1781       C  0.00203780  0.96130668  0.75172692     0.03100
C1782       C  0.96436664  0.96280887  0.75230910     0.03100
C1783       C  0.96498357  0.00056204  0.75094376     0.03100
C1784       C  0.00402168  0.53730986  0.74949528     0.03100
C1785       C  0.54186610  0.53565922  0.74729992     0.03100
C1786       C  0.54088744  0.49788077  0.74922983     0.03100
C1787       C  0.62894229  0.97804374  0.78668248     0.04000
C1788       C  0.58995496  0.97654812  0.78410798    -0.12200
C1789       C  0.58086709  0.49663586  0.74889766     0.01500
C1790       C  0.60938817  0.51428375  0.71233413    -0.10700
C1791       C  0.64810500  0.51622307  0.71366704     0.04000
C1792       C  0.65869512  0.50073426  0.75230725    -0.10100
H1793       H  0.56598029  0.95963039  0.80947052     0.09600
H1794       H  0.60196097  0.52762112  0.68331200     0.07100
H1795       H  0.69037672  0.50677718  0.75498811     0.06900
C1796       C  0.88032920  0.52816799  0.78149224     0.04000
C1797       C  0.85135561  0.50713137  0.74539098    -0.12200
C1798       C  0.85775294  0.98265853  0.71302289     0.01500
C1799       C  0.89429109  0.98005004  0.71581736    -0.10700
C1800       C  0.92444287  0.50143104  0.75039496     0.04000
C1801       C  0.91745485  0.52607038  0.78187913    -0.10100
H1802       H  0.82149190  0.50578904  0.74501884     0.09600
H1803       H  0.89965222  0.96202103  0.69036293     0.07100
H1804       H  0.94134185  0.54362149  0.80713382     0.06900
C1805       C  0.98810246  0.62335930  0.70440296     0.04000
C1806       C  0.51786550  0.65534630  0.73259458    -0.12200
C1807       C  0.53455460  0.64784270  0.77272300     0.01500
C1808       C  0.52889972  0.60897611  0.77933433    -0.10700
C1809       C  0.50579719  0.57781963  0.74713892     0.04000
C1810       C  0.98319208  0.58479515  0.71276079    -0.10100
H1811       H  0.52703883  0.68632105  0.72525683     0.09600
H1812       H  0.54242666  0.60302502  0.80951602     0.07100
H1813       H  0.96152550  0.55914200  0.69373479     0.06900
C1814       C  0.63958148  0.62808037  0.78891202     0.04000
C1815       C  0.60816678  0.58760382  0.78454166    -0.12200
C1816       C  0.58267200  0.57434568  0.74539288     0.01500
C1817       C  0.59386349  0.59963911  0.70638119    -0.10700
C1818       C  0.62287696  0.64152659  0.70956257     0.04000
C1819       C  0.64389476  0.65517420  0.75302967    -0.10100
H1820       H  0.60269146  0.56611741  0.81185687     0.09600
H1821       H  0.57939093  0.58530481  0.67416271     0.07100
H1822       H  0.66356807  0.68671669  0.76019224     0.06900
C1823       C  0.52462792  0.87703278  0.71946086     0.04000
C1824       C  0.52042075  0.91147227  0.71676236    -0.12200
C1825       C  0.50106258  0.92134840  0.75273851     0.01500
C1826       C  0.98254109  0.89402726  0.79003588    -0.10700
C1827       C  0.98621586  0.85894706  0.79345315     0.04000
C1828       C  0.50932436  0.85236738  0.75880338    -0.10100
H1829       H  0.53336692  0.93137351  0.68706671     0.09600
H1830       H  0.96546014  0.90036292  0.81627666     0.07100
H1831       H  0.51446013  0.82699143  0.76163139     0.06900
C1832       C  0.87738480  0.85666084  0.72425218     0.04000
C1833       C  0.91258438  0.89511079  0.71966035    -0.12200
C1834       C  0.92431803  0.92405791  0.75548899     0.01500
C1835       C  0.90065874  0.91441419  0.79658844    -0.10700
C1836       C  0.86533582  0.87626887  0.80239146     0.04000
C1837       C  0.85400224  0.84752835  0.76600385    -0.10100
H1838       H  0.93170458  0.90234483  0.68851799     0.09600
H1839       H  0.91039837  0.93645449  0.82458372     0.07100
H1840       H  0.82587622  0.81866407  0.76944364     0.06900
C1841       C  0.62985732  0.67047841  0.66885173    -0.04500
C1842       C  0.66962830  0.70447801  0.65848149    -0.01600
C1843       C  0.67567806  0.72684615  0.61753632     0.03400
C1844       C  0.64187669  0.72729483  0.59615555    -0.04500
C1845       C  0.60171623  0.69625065  0.60778688    -0.01600
C1846       C  0.59674908  0.66532614  0.63863052     0.03400
C1847       C  0.70309863  0.72371930  0.69160237     0.38000
C1848       C  0.56555717  0.69371269  0.58492596     0.38000
C1849       C  0.55960235  0.62716984  0.63255878     0.36400
C1850       C  0.71717585  0.74976850  0.59853213     0.36400
N1851       N  0.53153398  0.59604289  0.62378492    -0.38400
N1852       N  0.75027304  0.76754614  0.58309325    -0.38400
N1853       N  0.53666709  0.69185941  0.56714747    -0.37800
N1854       N  0.73013317  0.74453182  0.71610678    -0.37800
C1855       C  0.58765925  0.85555843  0.60455922    -0.04500
C1856       C  0.55218572  0.85933579  0.59640334    -0.01600
C1857       C  0.53017692  0.86377381  0.63418302     0.03400
C1858       C  0.54477687  0.86675534  0.68040917    -0.04500
C1859       C  0.57913040  0.86090476  0.68862082    -0.01600
C1860       C  0.60057945  0.85560923  0.65079816     0.03400
C1861       C  0.54025004  0.86207276  0.54903083     0.38000
C1862       C  0.59174118  0.85878939  0.73584556     0.38000
C1863       C  0.63582741  0.84992926  0.65970517     0.36400
C1864       C  0.49152393  0.86365749  0.62540434     0.36400
N1865       N  0.66385289  0.84542766  0.66757698    -0.38400
N1866       N  0.46052907  0.86312802  0.61815136    -0.38400
N1867       N  0.60063255  0.85535315  0.77350337    -0.37800
N1868       N  0.53106115  0.86530971  0.51145193    -0.37800
C1869       C  0.82573870  0.95907178  0.67640803    -0.04500
C1870       C  0.81812725  0.97898545  0.63990276    -0.01600
C1871       C  0.79162261  0.95699103  0.60238215     0.03400
C1872       C  0.77096402  0.91403139  0.60121989    -0.04500
C1873       C  0.77501960  0.89440830  0.64098014    -0.01600
C1874       C  0.80179667  0.91668887  0.67810631     0.03400
C1875       C  0.83478022  0.52201633  0.64315064     0.38000
C1876       C  0.74868722  0.85140614  0.64694077     0.38000
C1877       C  0.79975898  0.89538851  0.72026319     0.36400
C1878       C  0.78494381  0.97962566  0.56656237     0.36400
N1879       N  0.79346681  0.87521911  0.75251899    -0.38400
N1880       N  0.78000942  0.99909585  0.53946275    -0.38400
N1881       N  0.72733699  0.81753842  0.65441022    -0.37800
N1882       N  0.84646483  0.55615215  0.64610720    -0.37800
C1883       C  0.91955802  0.65011131  0.59830105    -0.04500
C1884       C  0.92172174  0.61460285  0.59415889    -0.01600
C1885       C  0.94413204  0.60542173  0.62702421     0.03400
C1886       C  0.96244253  0.63068217  0.66757909    -0.04500
C1887       C  0.95562074  0.66431690  0.67276067    -0.01600
C1888       C  0.93909626  0.67628255  0.63593122     0.03400
C1889       C  0.90046089  0.58706487  0.55543842     0.38000
C1890       C  0.96008595  0.68388973  0.71764149     0.38000
C1891       C  0.94270969  0.71587247  0.63645674     0.36400
C1892       C  0.94497507  0.56850548  0.61772865     0.36400
N1893       N  0.94672166  0.74789577  0.63550923    -0.38400
N1894       N  0.94378745  0.53831816  0.60874874    -0.38400
N1895       N  0.96373806  0.69909108  0.75374856    -0.37800
N1896       N  0.88344785  0.56509566  0.52486608    -0.37800
C1897       C  0.73026103  0.58725893  0.60217450    -0.04500
C1898       C  0.72916359  0.60471254  0.64570654    -0.01600
C1899       C  0.70713771  0.57993477  0.68357499     0.03400
C1900       C  0.67905254  0.53900181  0.67650491    -0.04500
C1901       C  0.67777402  0.52143269  0.63279959    -0.01600
C1902       C  0.70476480  0.54485886  0.59643501     0.03400
C1903       C  0.74738729  0.64787012  0.65051592     0.38000
C1904       C  0.64867065  0.97917584  0.62484553     0.38000
C1905       C  0.70427178  0.52514602  0.55273526     0.36400
C1906       C  0.71590941  0.59459764  0.73096418     0.36400
N1907       N  0.70353315  0.50898359  0.51809227    -0.38400
N1908       N  0.72254332  0.60218687  0.77015903    -0.38400
N1909       N  0.62538662  0.94547594  0.61858094    -0.37800
N1910       N  0.76046420  0.68234454  0.65141099    -0.37800
C1911       C  0.86580665  0.82631789  0.68513082    -0.04500
C1912       C  0.86011203  0.83591081  0.63906100    -0.01600
C1913       C  0.85073178  0.80778197  0.60227867     0.03400
C1914       C  0.85199562  0.77182581  0.60968911    -0.04500
C1915       C  0.85666783  0.76172822  0.65552073    -0.01600
C1916       C  0.86131822  0.78781369  0.69300822     0.03400
C1917       C  0.86362510  0.87460787  0.62890929     0.38000
C1918       C  0.85379685  0.72302791  0.66468100     0.38000
C1919       C  0.85954893  0.77352437  0.73957053     0.36400
C1920       C  0.83719173  0.81510759  0.55793189     0.36400
N1921       N  0.85629205  0.75975924  0.77601960    -0.38400
N1922       N  0.82406160  0.82083343  0.52406760    -0.38400
N1923       N  0.85097157  0.69203054  0.67220414    -0.37800
N1924       N  0.86729885  0.90562868  0.61961893    -0.37800
C1925       C  0.53026904  0.86076043  0.32999386    -0.04500
C1926       C  0.51051243  0.83578294  0.36849298    -0.01600
C1927       C  0.53383992  0.82789011  0.40145764     0.03400
C1928       C  0.57765881  0.84766791  0.39785882    -0.04500
C1929       C  0.59717586  0.87103532  0.35799574    -0.01600
C1930       C  0.57292787  0.87501372  0.32300595     0.03400
C1931       C  0.46608992  0.81631440  0.37251987     0.38000
C1932       C  0.64172454  0.88931578  0.35181028     0.38000
C1933       C  0.58905071  0.88676589  0.27644718     0.36400
C1934       C  0.51276175  0.79882821  0.43831843     0.36400
N1935       N  0.59745127  0.89222303  0.23735350    -0.38400
N1936       N  0.49600771  0.77532644  0.46744040    -0.38400
N1937       N  0.67732870  0.90404192  0.34684877    -0.37800
N1938       N  0.43037513  0.79996791  0.37535716    -0.37800
C1939       C  0.86235062  0.83426851  0.33750550    -0.04500
C1940       C  0.84962725  0.79373540  0.32612832    -0.01600
C1941       C  0.83609405  0.76473815  0.36140290     0.03400
C1942       C  0.84686811  0.77713872  0.40810722    -0.04500
C1943       C  0.86706300  0.81894634  0.41875271    -0.01600
C1944       C  0.86929124  0.84641200  0.38474882     0.03400
C1945       C  0.85843059  0.78338725  0.28018946     0.38000
C1946       C  0.89134492  0.83474448  0.46092061     0.38000
C1947       C  0.87975003  0.88698840  0.39835247     0.36400
C1948       C  0.81646925  0.72256318  0.34899483     0.36400
N1949       N  0.88764031  0.91926281  0.40917040    -0.38400
N1950       N  0.80093775  0.68863068  0.34029160    -0.38400
N1951       N  0.91245154  0.84804168  0.49335030    -0.37800
N1952       N  0.86739078  0.77573343  0.24428161    -0.37800
C1953       C  0.95448623  0.63106638  0.32433038    -0.04500
C1954       C  0.93195752  0.65163834  0.31514344    -0.01600
C1955       C  0.92106759  0.66969054  0.35177394     0.03400
C1956       C  0.92553542  0.66168797  0.39855894    -0.04500
C1957       C  0.94922481  0.64273815  0.40813192    -0.01600
C1958       C  0.96477821  0.62878112  0.37139334     0.03400
C1959       C  0.91944339  0.65455972  0.26808092     0.38000
C1960       C  0.96132022  0.64123999  0.45570527     0.38000
C1961       C  0.99322481  0.61417987  0.38236169     0.36400
C1962       C  0.90639126  0.69743478  0.34072571     0.36400
N1963       N  0.51604823  0.60276672  0.39141894    -0.38400
N1964       N  0.89556325  0.71996282  0.33040542    -0.38400
N1965       N  0.97243465  0.64069040  0.49317844    -0.37800
N1966       N  0.91046926  0.65802689  0.23048360    -0.37800
C1967       C  0.62758947  0.67227739  0.32421575    -0.04500
C1968       C  0.63904690  0.71271906  0.31306129    -0.01600
C1969       C  0.64538229  0.74077474  0.34878467     0.03400
C1970       C  0.64387485  0.73004111  0.39594738    -0.04500
C1971       C  0.63317321  0.69017355  0.40744021    -0.01600
C1972       C  0.62510363  0.66143552  0.37185126     0.03400
C1973       C  0.64571375  0.72642456  0.26501775     0.38000
C1974       C  0.63081035  0.67873671  0.45607535     0.38000
C1975       C  0.61629786  0.62127509  0.38460941     0.36400
C1976       C  0.65116046  0.78012455  0.33694753     0.36400
N1977       N  0.60901454  0.58921047  0.39497864    -0.38400
N1978       N  0.65528816  0.81125704  0.32727268    -0.38400
N1979       N  0.62874608  0.66951218  0.49481773    -0.37800
N1980       N  0.65238897  0.73785377  0.22690337    -0.37800
C1981       C  0.67759344  0.54441691  0.32398507    -0.04500
C1982       C  0.66374404  0.53983394  0.37105375    -0.01600
C1983       C  0.69128050  0.56377912  0.40679216     0.03400
C1984       C  0.73433698  0.58779434  0.39744117    -0.04500
C1985       C  0.74879035  0.58815324  0.35164906    -0.01600
C1986       C  0.72058583  0.56972581  0.31471150     0.03400
C1987       C  0.62182278  0.50905501  0.38349730     0.38000
C1988       C  0.79280081  0.60731949  0.34195241     0.38000
C1989       C  0.73629887  0.57809413  0.26718048     0.36400
C1990       C  0.67505463  0.56273150  0.45332356     0.36400
N1991       N  0.74830294  0.58412964  0.22906711    -0.38400
N1992       N  0.66154988  0.56214763  0.49006308    -0.38400
N1993       N  0.82785076  0.62190494  0.33371275    -0.37800
N1994       N  0.58849129  0.48437026  0.39346504    -0.37800
C1995       C  0.76555585  0.91243448  0.38862171    -0.04500
C1996       C  0.76946565  0.88967589  0.35183655    -0.01600
C1997       C  0.79036864  0.90895994  0.31054635     0.03400
C1998       C  0.81704974  0.95086248  0.31010283    -0.04500
C1999       C  0.81607171  0.97388462  0.34839381    -0.01600
C2000       C  0.78716156  0.95493365  0.38503644     0.03400
C2001       C  0.75384671  0.84683308  0.35622774     0.38000
C2002       C  0.84509943  0.51709359  0.35114303     0.38000
C2003       C  0.77943931  0.97939870  0.41795847     0.36400
C2004       C  0.77920614  0.88635286  0.26743964     0.36400
N2005       N  0.77283777  0.99987176  0.44233143    -0.38400
N2006       N  0.76703269  0.86779417  0.23341642    -0.38400
N2007       N  0.86852306  0.55121235  0.35413206    -0.37800
N2008       N  0.74366546  0.81298330  0.35888525    -0.37800
C2009       C  0.86967735  0.54766618  0.82205169    -0.04500
C2010       C  0.84648844  0.56797168  0.81547129    -0.01600
C2011       C  0.83507160  0.58378323  0.85415409     0.03400
C2012       C  0.85266252  0.58654083  0.89833267    -0.04500
C2013       C  0.87821351  0.56934871  0.90466506    -0.01600
C2014       C  0.88243086  0.54605668  0.86869723     0.03400
C2015       C  0.83588837  0.57525553  0.76933988     0.38000
C2016       C  0.90268025  0.57792223  0.94692623     0.38000
C2017       C  0.89885386  0.51991500  0.88125465     0.36400
C2018       C  0.80577896  0.59811176  0.84817506     0.36400
N2019       N  0.91188897  0.49913186  0.89187760    -0.38400
N2020       N  0.78172202  0.60870575  0.84329800    -0.38400
N2021       N  0.92293641  0.58540951  0.98010935    -0.37800
N2022       N  0.82672237  0.58187798  0.73330277    -0.37800
C2023       C  0.86163414  0.53380524  0.16473892    -0.04500
C2024       C  0.84714595  0.56004221  0.18096297    -0.01600
C2025       C  0.83956753  0.58386799  0.14935173     0.03400
C2026       C  0.84033790  0.57775743  0.10109700    -0.04500
C2027       C  0.84873596  0.54792453  0.08499386    -0.01600
C2028       C  0.86467129  0.53025465  0.11544746     0.03400
C2029       C  0.84037331  0.56339431  0.23021782     0.38000
C2030       C  0.83791326  0.53320481  0.03740926     0.38000
C2031       C  0.88792343  0.01340843  0.09295601     0.36400
C2032       C  0.83221000  0.61528444  0.16685610     0.36400
N2033       N  0.90640181  0.00329152  0.06892181    -0.38400
N2034       N  0.82731334  0.64053251  0.18260519    -0.38400
N2035       N  0.82738024  0.52015623  0.00026285    -0.37800
N2036       N  0.83354128  0.56546399  0.26924566    -0.37800
C2037       C  0.72419513  0.64801768  0.90254213    -0.04500
C2038       C  0.73952678  0.66882832  0.86071161    -0.01600
C2039       C  0.71230862  0.66463116  0.82437330     0.03400
C2040       C  0.66849334  0.64088702  0.83036699    -0.04500
C2041       C  0.65332202  0.62385022  0.87515543    -0.01600
C2042       C  0.68096630  0.62443133  0.90938842     0.03400
C2043       C  0.78404604  0.68961737  0.85280542     0.38000
C2044       C  0.60952629  0.60642656  0.88668641     0.38000
C2045       C  0.66490371  0.59846712  0.94978120     0.36400
C2046       C  0.73138962  0.67997634  0.77968597     0.36400
N2047       N  0.65188297  0.57711565  0.98151270    -0.38400
N2048       N  0.75096779  0.69121570  0.74598487    -0.38400
N2049       N  0.57464784  0.59267531  0.89606262    -0.37800
N2050       N  0.81942868  0.70399177  0.84695397    -0.37800
C2051       C  0.92253264  0.76965577  0.90294461    -0.04500
C2052       C  0.94341165  0.81112058  0.91405483    -0.01600
C2053       C  0.96546583  0.84020835  0.87917283     0.03400
C2054       C  0.96530209  0.82822642  0.83197663    -0.04500
C2055       C  0.94500303  0.78610195  0.82177520    -0.01600
C2056       C  0.92529913  0.75731964  0.85735258     0.03400
C2057       C  0.94118639  0.82395082  0.96131474     0.38000
C2058       C  0.94150576  0.77158938  0.77420128     0.38000
C2059       C  0.90726995  0.71472140  0.84674633     0.36400
C2060       C  0.98820871  0.88233200  0.89257494     0.36400
N2061       N  0.89320835  0.68088141  0.83780627    -0.38400
N2062       N  0.50569663  0.91592034  0.90355580    -0.38400
N2063       N  0.93850088  0.76025217  0.73610375    -0.37800
N2064       N  0.93939977  0.83436945  0.99889802    -0.37800
C2065       C  0.73205663  0.66210888  0.10173261    -0.04500
C2066       C  0.69023711  0.64954381  0.09175568    -0.01600
C2067       C  0.66047507  0.63603156  0.12794575     0.03400
C2068       C  0.67297048  0.63708489  0.17480024    -0.04500
C2069       C  0.71603207  0.65452764  0.18469140    -0.01600
C2070       C  0.74545286  0.66828200  0.14826567     0.03400
C2071       C  0.67936856  0.65688492  0.04578481     0.38000
C2072       C  0.73026302  0.65811209  0.23226437     0.38000
C2073       C  0.78950866  0.69135049  0.15840155     0.36400
C2074       C  0.61741199  0.62237146  0.11663325     0.36400
N2075       N  0.82465853  0.71122965  0.16596039    -0.38400
N2076       N  0.58309277  0.61100083  0.10685296    -0.38400
N2077       N  0.74080330  0.66132997  0.27067314    -0.37800
N2078       N  0.67079541  0.66477160  0.01012018    -0.37800
C2079       C  0.91478824  0.76475266  0.10677419    -0.04500
C2080       C  0.90468886  0.79527135  0.11611266    -0.01600
C2081       C  0.93138567  0.82909062  0.14285070     0.03400
C2082       C  0.96153521  0.82817951  0.17264717    -0.04500
C2083       C  0.97100519  0.79666751  0.16459912    -0.01600
C2084       C  0.94852270  0.76583918  0.13119505     0.03400
C2085       C  0.86710814  0.79311248  0.09746962     0.38000
C2086       C  0.50649569  0.79767998  0.18715117     0.38000
C2087       C  0.96083901  0.73577603  0.12188036     0.36400
C2088       C  0.93392746  0.86626842  0.12793407     0.36400
N2089       N  0.97076001  0.71186015  0.11461914    -0.38400
N2090       N  0.93645036  0.89487219  0.11115791    -0.38400
N2091       N  0.53445136  0.79816820  0.20561603    -0.37800
N2092       N  0.83726611  0.79159929  0.08287349    -0.37800
C2093       C  0.55273806  0.67881240  0.81117174    -0.04500
C2094       C  0.52806742  0.67608045  0.85025955    -0.01600
C2095       C  0.54553452  0.70178342  0.88946503     0.03400
C2096       C  0.58861089  0.73044943  0.89036042    -0.04500
C2097       C  0.61202895  0.73622887  0.84869755    -0.01600
C2098       C  0.59338817  0.71184948  0.80876421     0.03400
C2099       C  0.98359747  0.65010657  0.84734621     0.38000
C2100       C  0.65479567  0.76866937  0.84558580     0.38000
C2101       C  0.61365669  0.72453947  0.76388526     0.36400
C2102       C  0.51863074  0.69880225  0.92813406     0.36400
N2103       N  0.62942505  0.73687349  0.72817474    -0.38400
N2104       N  0.49677233  0.69651566  0.95851569    -0.38400
N2105       N  0.68895642  0.79435173  0.84270859    -0.37800
N2106       N  0.94798263  0.63075464  0.84346083    -0.37800
C2107       C  0.53449192  0.66822065  0.17477793    -0.04500
C2108       C  0.52888386  0.65567983  0.12745628    -0.01600
C2109       C  0.54960186  0.68370151  0.09157012     0.03400
C2110       C  0.57368779  0.72524888  0.10197374    -0.04500
C2111       C  0.57739243  0.73830732  0.14871190    -0.01600
C2112       C  0.55840102  0.71018857  0.18498767     0.07000
C2113       C  0.00058433  0.61405947  0.11494840     0.38000
C2114       C  0.60226676  0.78073718  0.16007219     0.38000
C2115       C  0.56383235  0.72531243  0.23261925     0.36400
C2116       C  0.54602025  0.66929539  0.04382856     0.36400
N2117       N  0.56743969  0.73770309  0.27034492    -0.38400
N2118       N  0.54341827  0.65710146  0.00616451    -0.38400
N2119       N  0.62158031  0.81445169  0.16996119    -0.37800
N2120       N  0.97856619  0.58084791  0.10455880    -0.37800
C2121       C  0.63745668  0.95563343  0.82507170    -0.04500
C2122       C  0.61773147  0.94972700  0.86947765    -0.01600
C2123       C  0.61626325  0.92058017  0.90052550     0.03400
C2124       C  0.64343842  0.90513638  0.89440600    -0.04500
C2125       C  0.66775601  0.91472927  0.85345421    -0.01600
C2126       C  0.66260070  0.93722065  0.81749915     0.03400
C2127       C  0.60280263  0.97632744  0.88596090     0.38000
C2128       C  0.69656967  0.89962512  0.84712696     0.38000
C2129       C  0.68182316  0.93894624  0.77259067     0.36400
C2130       C  0.58619207  0.90588423  0.93839082     0.36400
N2131       N  0.69724570  0.93977602  0.73698696    -0.38400
N2132       N  0.56193803  0.89342021  0.96833054    -0.38400
N2133       N  0.71980196  0.88795133  0.84162587    -0.37800
N2134       N  0.59137266  0.99788773  0.89929211    -0.37800
C2135       C  0.83856715  0.86760019  0.84517646    -0.04500
C2136       C  0.82317680  0.83107182  0.86984046    -0.01600
C2137       C  0.79052606  0.81956435  0.90257388     0.03400
C2138       C  0.77836558  0.84777164  0.91651432    -0.04500
C2139       C  0.80170762  0.88757549  0.90073241    -0.01600
C2140       C  0.82690657  0.89552895  0.86147056     0.03400
C2141       C  0.84328142  0.80736729  0.86512249     0.38000
C2142       C  0.79787464  0.92023866  0.92244011     0.38000
C2143       C  0.83048461  0.92748895  0.83315693     0.36400
C2144       C  0.76943371  0.77895911  0.92082262     0.36400
N2145       N  0.82624995  0.95098159  0.81293184    -0.38400
N2146       N  0.75215484  0.74652375  0.93537339    -0.38400
N2147       N  0.79467590  0.94620375  0.93930139    -0.37800
N2148       N  0.86048087  0.78918120  0.86392610    -0.37800
C2149       C  0.65485753  0.91904335  0.09928971    -0.04500
C2150       C  0.67102705  0.92070460  0.14421921    -0.01600
C2151       C  0.66691359  0.94422641  0.18008546     0.03400
C2152       C  0.64403708  0.96490215  0.17235521    -0.04500
C2153       C  0.63412051  0.96814399  0.12534871    -0.01600
C2154       C  0.64049773  0.94618060  0.08913428     0.03400
C2155       C  0.69280277  0.89865256  0.15377297     0.38000
C2156       C  0.62108137  0.99706889  0.11324950     0.38000
C2157       C  0.63910577  0.95685836  0.04113251     0.36400
C2158       C  0.68635918  0.94581562  0.22445622     0.36400
N2159       N  0.64024901  0.96823199  0.00357394    -0.38400
N2160       N  0.70315636  0.94722763  0.25893593    -0.38400
N2161       N  0.61244926  0.52159466  0.10376212    -0.37800
N2162       N  0.71035684  0.88139206  0.16188025    -0.37800
C2163       C  0.82780011  0.85827049  0.17586149    -0.04500
C2164       C  0.82949015  0.88834046  0.14565736    -0.01600
C2165       C  0.79596206  0.88114269  0.11671312     0.03400
C2166       C  0.76273524  0.84153200  0.10928582    -0.04500
C2167       C  0.76197027  0.81012504  0.13605761    -0.01600
C2168       C  0.79348327  0.81842309  0.16960087     0.03400
C2169       C  0.86721106  0.92602055  0.14038041     0.38000
C2170       C  0.72828412  0.76902245  0.13025915     0.38000
C2171       C  0.78962301  0.78488680  0.19658575     0.36400
C2172       C  0.79513459  0.91560533  0.09672616     0.36400
N2173       N  0.78378073  0.75704056  0.21803424    -0.38400
N2174       N  0.79356132  0.94264873  0.08108096    -0.38400
N2175       N  0.70131198  0.73627016  0.12607771    -0.37800
N2176       N  0.89960211  0.95404615  0.13577120    -0.37800
loop_ 
_geom_bond_atom_site_label_1 
_geom_bond_atom_site_label_2 
_geom_bond_distance 
_geom_bond_site_symmetry_2 
_ccdc_geom_bond_type 
O1          Cr19   1.978   1_556  S
O1            C9   1.266       .  A
O2          Cr19   2.005   1_556  S
O2            C3   1.256       .  A
C3            O4   1.254       .  A
C3          C506   1.478       .  S
O4          Cr20   1.955       .  S
O5          Cr20   2.001       .  S
O5            C6   1.262       .  A
C6            O7   1.259       .  A
C6          C492   1.487       .  S
O7          Cr21   1.986   1_556  S
O8          Cr21   2.037   1_556  S
O8            C9   1.278       .  A
C9          C464   1.508       .  S
O10         Cr19   1.983       .  S
O10          C18   1.257       .  A
O11         Cr19   1.992       .  S
O11          C12   1.266       .  A
C12          O13   1.270       .  A
C12         C534   1.511       .  S
O13         Cr20   2.011   1_554  S
O14         Cr20   1.965   1_554  S
O14          C15   1.260       .  A
C15          O16   1.275       .  A
C15         C517   1.500       .  S
O16         Cr21   2.043       .  S
O17         Cr21   1.992       .  S
O17          C18   1.261       .  A
C18         C478   1.484       .  S
Cr19         O22   1.783       .  S
Cr20         O22   1.756   1_556  S
Cr21         O22   1.768       .  S
O23         Cr41   1.968   1_554  S
O23          C31   1.258       .  A
O24         Cr41   2.000   1_554  S
O24          C25   1.266       .  A
C25          O26   1.261       .  A
C25         C447   1.500       .  S
O26         Cr42   1.988       .  S
O27         Cr42   1.997       .  S
O27          C28   1.261       .  A
C28          O29   1.254       .  A
C28         C394   1.478       .  S
O29         Cr43   1.984       .  S
O30         Cr43   2.008       .  S
O30          C31   1.266       .  A
C31         C433   1.474       .  S
O32         Cr41   2.006       .  S
O32          C40   1.264       .  A
O33         Cr41   1.983       .  S
O33          C34   1.263       .  A
C34          O35   1.265       .  A
C34         C419   1.485       .  S
O35         Cr42   2.018   1_556  S
O36         Cr42   1.974   1_556  S
O36          C37   1.262       .  A
C37          O38   1.275       .  A
C37         C380   1.489       .  S
O38         Cr43   2.035   1_556  S
O39         Cr43   1.966   1_556  S
O39          C40   1.258       .  A
C40         C405   1.476       .  S
Cr41         O44   1.766   1_556  S
Cr42         O44   1.774       .  S
Cr43         O44   1.774       .  S
C45         C100   1.497       .  S
C45          C46   1.421       .  A
C45        C1138   1.419       .  A
C46          C89   1.500       .  S
C46          C47   1.434       .  A
C47          C53   1.510       .  S
C47         C592   1.425       .  A
C48          C80   1.514       .  S
C48         C591   1.425   1_545  A
C48        C1137   1.435       .  A
C49          C71   1.500       .  S
C49        C1136   1.435   1_455  A
C49         C594   1.436   1_545  A
C50          C62   1.508       .  S
C50        C1133   1.419       .  A
C50         C593   1.436       .  A
C51         C391   1.513       .  S
C51          C52   1.415       .  A
C51         C600   1.413   1_545  A
C52         C597   1.422   1_545  A
C52          H57   1.082       .  S
C53          C54   1.405       .  A
C53         C596   1.422       .  A
C54          C55   1.400       .  A
C54          H58   1.083       .  S
C55         C366   1.491       .  S
C55          C56   1.402       .  A
C56         C595   1.413       .  A
C56          H59   1.084       .  S
C60         C520   1.528       .  S
C60          C61   1.421       .  A
C60          C65   1.404       .  A
C61          C62   1.418       .  A
C61          H66   1.082       .  S
C62         C607   1.401       .  A
C63          C64   1.403       .  A
C63         C606   1.401       .  A
C63          H67   1.082       .  S
C64         C349   1.506       .  S
C64         C609   1.406       .  A
C65         C608   1.406       .  A
C65          H68   1.070       .  S
C69         C436   1.495       .  S
C69          C70   1.405       .  A
C69          C74   1.399       .  A
C70          C71   1.407       .  A
C70          H75   1.083       .  S
C71          C72   1.410       .  A
C72          C73   1.409       .  A
C72          H76   1.082       .  S
C73         C335   1.502       .  S
C73          C74   1.397       .  A
C74          H77   1.081       .  S
C78         C475   1.503       .  S
C78          C79   1.407       .  A
C78        C1171   1.394   1_455  A
C79        C1168   1.408   1_455  A
C79          H84   1.082       .  S
C80          C81   1.419       .  A
C80        C1167   1.408       .  A
C81          C82   1.419       .  A
C81          H85   1.083       .  S
C82         C321   1.515       .  S
C82          C83   1.398       .  A
C83        C1166   1.394       .  A
C83          H86   1.075       .  S
C87         C307   1.486       .  S
C87          C88   1.405       .  A
C87          C92   1.407       .  A
C88          C89   1.395       .  A
C88          H93   1.082       .  S
C89          C90   1.394       .  A
C90          C91   1.417       .  A
C90          H94   1.060       .  S
C91         C531   1.536       .  S
C91          C92   1.408       .  A
C92          H95   1.079       .  S
C96         C293   1.497       .  S
C96         C101   1.404       .  A
C96        C1185   1.406   1_455  A
C97          C98   1.419       .  A
C97        C1184   1.406       .  A
C97         H102   1.080       .  S
C98         C450   1.528       .  S
C98          C99   1.414       .  A
C99         C100   1.402       .  A
C99         H103   1.071       .  S
C100       C1189   1.401       .  A
C101       C1188   1.401       .  A
C101        H104   1.083       .  S
O105       Cr123   1.973       .  S
O105        C113   1.260       .  A
O106       Cr123   2.013       .  S
O106        C107   1.265       .  A
C107        O108   1.264       .  A
C107        C282   1.490       .  S
O108       Cr124   1.985       .  S
O109       Cr124   2.008       .  S
O109        C110   1.264       .  A
C110        O111   1.260       .  A
C110        C251   1.480       .  S
O111       Cr125   1.970       .  S
O112       Cr125   2.004       .  S
O112        C113   1.262       .  A
C113        C265   1.501       .  S
O114       Cr123   2.017       .  S
O114        C122   1.268       .  A
O115       Cr123   1.967       .  S
O115        C116   1.261       .  A
C116        O117   1.263       .  A
C116        C310   1.483       .  S
O117       Cr124   2.002       .  S
O118       Cr124   2.005       .  S
O118        C119   1.267       .  A
C119        O120   1.265       .  A
C119        C324   1.500       .  S
O120       Cr125   2.009       .  S
O121       Cr125   1.976       .  S
O121        C122   1.262       .  A
C122        C352   1.494       .  S
Cr123       O126   1.778       .  S
Cr124       O126   1.779       .  S
Cr125       O126   1.775       .  S
O127       Cr145   1.987       .  S
O127        C135   1.263       .  A
O128       Cr145   2.014       .  S
O128        C129   1.266       .  A
C129        O130   1.262       .  A
C129        C363   1.490       .  S
O130       Cr146   1.982       .  S
O131       Cr146   2.014       .  S
O131        C132   1.267       .  A
C132        O133   1.260       .  A
C132        C296   1.482       .  S
O133       Cr147   1.976       .  S
O134       Cr147   1.997       .  S
O134        C135   1.261       .  A
C135        C338   1.481       .  S
O136       Cr145   2.012       .  S
O136        C144   1.267       .  A
O137       Cr145   2.001       .  S
O137        C138   1.267       .  A
C138        O139   1.264       .  A
C138        C240   1.517       .  S
O139       Cr146   2.002       .  S
O140       Cr146   1.981       .  S
O140        C141   1.259       .  A
C141        O142   1.261       .  A
C141        C223   1.478       .  S
O142       Cr147   1.998       .  S
O143       Cr147   1.980       .  S
O143        C144   1.262       .  A
C144        C212   1.499       .  S
Cr145       O148   1.771       .  S
Cr146       O148   1.774       .  S
Cr147       O148   1.781       .  S
C149       C1281   1.510       .  S
C149        C150   1.423       .  A
C149       C1786   1.424       .  A
C150        C202   1.491       .  S
C150        C151   1.431       .  A
C151        C712   1.514       .  S
C151        C696   1.435       .  A
C152       C1265   1.518       .  S
C152        C695   1.435       .  A
C152       C1241   1.434       .  A
C153        C184   1.502       .  S
C153        C154   1.427   1_545  A
C153       C1240   1.434       .  A
C154        C157   1.504       .  S
C154       C1781   1.424       .  A
C155        C489   1.525       .  S
C155        C156   1.417       .  A
C155        C704   1.413       .  A
C156        C701   1.409       .  A
C156        H161   1.079       .  S
C157        C158   1.399   1_565  A
C157        C700   1.409       .  A
C158        C159   1.398       .  A
C158        H162   1.084       .  S
C159        C268   1.487       .  S
C159        C160   1.405       .  A
C160        C699   1.414   1_545  A
C160        H163   1.080       .  S
C164        C377   1.527       .  S
C164        C165   1.419       .  A
C164        C169   1.416       .  A
C165        C710   1.408   1_545  A
C165        H170   1.081       .  S
C166        C237   1.503       .  S
C166        C167   1.406       .  A
C166        C709   1.408       .  A
C167        C712   1.409       .  A
C167        H171   1.082       .  S
C168        C695   1.515       .  S
C168        C169   1.411       .  A
C168        C711   1.410   1_545  A
C169        H172   1.081       .  S
C173        C254   1.540       .  S
C173        C178   1.414       .  A
C173       C1262   1.422       .  A
C174        C175   1.405       .  A
C174       C1261   1.422   1_455  A
C174        H179   1.079       .  S
C175        C461   1.506       .  S
C175        C176   1.407       .  A
C176        C177   1.409       .  A
C176        H180   1.082       .  S
C177       C1240   1.518       .  S
C177       C1266   1.405   1_455  A
C178       C1265   1.405       .  A
C178        H181   1.058       .  S
C182        C408   1.511       .  S
C182        C183   1.406       .  A
C182        C187   1.416       .  A
C183        C184   1.391       .  A
C183        H188   1.082       .  S
C184        C185   1.403       .  A
C185        C186   1.421       .  A
C185        H189   1.071       .  S
C186        C209   1.544       .  S
C186        C187   1.424       .  A
C187        H190   1.074       .  S
C191        C226   1.494       .  S
C191        C192   1.402       .  A
C191        C196   1.399       .  A
C192        C193   1.402       .  A
C192        H197   1.084       .  S
C193       C1237   1.510       .  S
C193       C1282   1.414   1_455  A
C194        C195   1.417       .  A
C194       C1281   1.414       .  A
C194        H198   1.079       .  S
C195        C422   1.518       .  S
C195       C1284   1.405       .  A
C196       C1283   1.405   1_455  A
C196        H199   1.079       .  S
C200        C279   1.509       .  S
C200        C201   1.406       .  A
C200        C205   1.412       .  A
C201        C202   1.406       .  A
C201        H206   1.083       .  S
C202        C203   1.400       .  A
C203        C204   1.406       .  A
C203        H207   1.084       .  S
C204        C503   1.503       .  S
C204        C205   1.414       .  A
C205        H208   1.083       .  S
C209        C210   1.432       .  A
C209        C214   1.436       .  A
C210        C211   1.407       .  A
C210        C215   1.441       .  S
C211        C212   1.404       .  A
C211        C218   1.445       .  S
C212        C213   1.407       .  A
C213        C214   1.417       .  A
C213        C216   1.453       .  S
C214        C217   1.435       .  S
C215        N222   1.157       .  T
C216        N221   1.157       .  T
C217        N219   1.154       .  T
C218        N220   1.154       .  T
C223        C224   1.410       .  A
C223        C228   1.410       .  A
C224        C225   1.408       .  A
C224        C229   1.450       .  S
C225        C226   1.416       .  A
C225        C232   1.452   1_455  S
C226        C227   1.417       .  A
C227        C228   1.409       .  A
C227        C230   1.450       .  S
C228        C231   1.449       .  S
C229        N236   1.157       .  T
C230        N235   1.157       .  T
C231        N233   1.156       .  T
C232        N234   1.157       .  T
C237        C238   1.407       .  A
C237        C242   1.410       .  A
C238        C239   1.416       .  A
C238        C787   1.447       .  S
C239        C240   1.427       .  A
C239        C246   1.446       .  S
C240        C241   1.417       .  A
C241        C242   1.415       .  A
C241        C244   1.447       .  S
C242        C245   1.442       .  S
C243        C782   1.447   1_545  S
C243        N250   1.155       .  T
C244        N249   1.155       .  T
C245        N247   1.154       .  T
C246        N248   1.155       .  T
C251        C252   1.402       .  A
C251        C256   1.401       .  A
C252        C253   1.414       .  A
C252        C257   1.459       .  S
C253        C254   1.444       .  A
C253        C260   1.448       .  S
C254        C255   1.432       .  A
C255        C256   1.410       .  A
C255        C258   1.450       .  S
C256        C259   1.450       .  S
C257        N264   1.158       .  T
C258        N263   1.157       .  T
C259        N261   1.157       .  T
C260        N262   1.159       .  T
C265        C266   1.418       .  A
C265        C270   1.423       .  A
C266        C267   1.406       .  A
C266        C271   1.445       .  S
C267        C268   1.398       .  A
C267        C274   1.440       .  S
C268        C269   1.405       .  A
C269        C270   1.414       .  A
C269        C816   1.444   1_545  S
C270        C273   1.451       .  S
C271        N278   1.157       .  T
C272        C813   1.444       .  S
C272        N277   1.154       .  T
C273        N275   1.158       .  T
C274        N276   1.154       .  T
C279        C280   1.417       .  A
C279        C284   1.416       .  A
C280        C281   1.415       .  A
C280        C285   1.450       .  S
C281        C282   1.414       .  A
C281        C288   1.448       .  S
C282        C283   1.407       .  A
C283        C284   1.411       .  A
C283        C286   1.454       .  S
C284        C287   1.434       .  S
C285        N292   1.157       .  T
C286        N291   1.158       .  T
C287        N289   1.151       .  T
C288        N290   1.157       .  T
C293        C294   1.405       .  A
C293        C298   1.405       .  A
C294        C295   1.414       .  A
C294        C299   1.433   1_455  S
C295        C296   1.413       .  A
C295        C302   1.451       .  S
C296        C297   1.410       .  A
C297        C298   1.408       .  A
C297        C300   1.447       .  S
C298        C301   1.439       .  S
C299        N306   1.151       .  T
C300        N305   1.156       .  T
C301        N303   1.153       .  T
C302        N304   1.157   1_455  T
C307        C308   1.413       .  A
C307        C312   1.410       .  A
C308        C309   1.400       .  A
C308        C313   1.451       .  S
C309        C310   1.408       .  A
C309        C316   1.444       .  S
C310        C311   1.420       .  A
C311        C312   1.409       .  A
C311        C314   1.448       .  S
C312        C315   1.450       .  S
C313        N320   1.157       .  T
C314        N319   1.158       .  T
C315        N317   1.157       .  T
C316        N318   1.154       .  T
C321        C322   1.427       .  A
C321        C326   1.418       .  A
C322        C323   1.413       .  A
C322        C327   1.451       .  S
C323        C324   1.406       .  A
C323        C330   1.448       .  S
C324        C325   1.415       .  A
C325        C326   1.417       .  A
C325        C328   1.447       .  S
C326        C329   1.451       .  S
C327        N334   1.157       .  T
C328        N333   1.156       .  T
C329       N1419   1.157       .  T
C330        N332   1.155       .  T
N331       C1417   1.157   1_455  T
C335        C336   1.423       .  A
C335        C340   1.418       .  A
C336        C337   1.409       .  A
C336        C341   1.452       .  S
C337        C338   1.407       .  A
C337        C344   1.452       .  S
C338        C339   1.412       .  A
C339        C340   1.412       .  A
C339        C342   1.452       .  S
C340        C343   1.451       .  S
C341        N348   1.158       .  T
C342        N347   1.157       .  T
C343        N345   1.157       .  T
C344        N346   1.157       .  T
C349        C350   1.420       .  A
C349        C354   1.418       .  A
C350        C351   1.414       .  A
C350        C355   1.452       .  S
C351        C352   1.415       .  A
C351        C358   1.450       .  S
C352        C353   1.410       .  A
C353        C354   1.407       .  A
C353        C356   1.443       .  S
C354        C357   1.451       .  S
C355        N362   1.158   1_545  T
C356        N361   1.153       .  T
C357        N359   1.157       .  T
C358        N360   1.157       .  T
C363        C364   1.412       .  A
C363        C368   1.415       .  A
C364        C365   1.406       .  A
C364        C369   1.447       .  S
C365        C366   1.404       .  A
C365        C372   1.441       .  S
C366        C367   1.412       .  A
C367        C368   1.415       .  A
C367        C914   1.448       .  S
C368        C371   1.446       .  S
C369        N376   1.157       .  T
C370        C911   1.448   1_545  S
C370        N375   1.157       .  T
C371        N373   1.156       .  T
C372        N374   1.155       .  T
C377        C378   1.427       .  A
C377        C382   1.431       .  A
C378        C379   1.417       .  A
C378        C383   1.448       .  S
C379        C380   1.406       .  A
C379        C386   1.447       .  S
C380        C381   1.406       .  A
C381        C382   1.413       .  A
C381        C384   1.451       .  S
C382        C385   1.450       .  S
C383        N390   1.157       .  T
C384        N389   1.158       .  T
C385        N387   1.158   1_545  T
C386        N388   1.155       .  T
C391        C392   1.424       .  A
C391        C396   1.426       .  A
C392        C393   1.412       .  A
C392        C397   1.447       .  S
C393        C394   1.402       .  A
C393        C400   1.441       .  S
C394        C395   1.395       .  A
C395        C396   1.405       .  A
C395        C398   1.451       .  S
C396        C943   1.439       .  S
C397        N404   1.155       .  T
C398        N403   1.156   1_554  T
C399        C940   1.439       .  S
C399        N401   1.158       .  T
C400        N402   1.154       .  T
C405        C406   1.396       .  A
C405        C410   1.407       .  A
C406        C407   1.405       .  A
C406        C411   1.449       .  S
C407        C408   1.422       .  A
C407        C414   1.439       .  S
C408        C409   1.424       .  A
C409        C410   1.414       .  A
C409        C412   1.451       .  S
C410        C413   1.449       .  S
C411        N418   1.153       .  T
C412        N417   1.158       .  T
C413        N415   1.158       .  T
C414        N416   1.153       .  T
C419        C420   1.411       .  A
C419        C424   1.405       .  A
C420        C421   1.417       .  A
C420        C425   1.451       .  S
C421        C422   1.423       .  A
C421        C428   1.449       .  S
C422        C423   1.428       .  A
C423        C424   1.412       .  A
C423        C426   1.449       .  S
C424        C427   1.451       .  S
C425        N432   1.157       .  T
C426        N431   1.156       .  T
C427        N429   1.157       .  T
C428       N1518   1.157       .  T
N430       C1516   1.157   1_455  T
C433        C434   1.405       .  A
C433        C438   1.402       .  A
C434        C435   1.408       .  A
C434        C439   1.449       .  S
C435        C436   1.416       .  A
C435        C442   1.448       .  S
C436        C437   1.420       .  A
C437        C438   1.406       .  A
C437        C440   1.445       .  S
C438        C441   1.449       .  S
C439        N446   1.157       .  T
C440        N445   1.155       .  T
C441        N443   1.157       .  T
C442        N444   1.156       .  T
C447        C448   1.412       .  A
C447        C452   1.417       .  A
C448        C449   1.401       .  A
C448        C453   1.457       .  S
C449        C450   1.424       .  A
C449        C456   1.444       .  S
C450        C451   1.428       .  A
C451        C452   1.420       .  A
C451       C1542   1.451       .  S
C452        C455   1.452       .  S
C453        N460   1.158       .  T
C454       C1539   1.451   1_455  S
C454        N459   1.157       .  T
C455        N457   1.158       .  T
C456        N458   1.158       .  T
C461        C462   1.411       .  A
C461        C466   1.407       .  A
C462        C463   1.416       .  A
C462       C1555   1.444   1_455  S
C463        C464   1.419       .  A
C463        C470   1.451       .  S
C464        C465   1.423       .  A
C465        C466   1.417       .  A
C465        C468   1.451       .  S
C466        C469   1.444       .  S
C467       C1550   1.444       .  S
C467        N474   1.154       .  T
C468        N473   1.157       .  T
C469        N471   1.156       .  T
C470        N472   1.158   1_455  T
C475        C476   1.415       .  A
C475        C480   1.424       .  A
C476        C477   1.408       .  A
C476       C1569   1.449       .  S
C477        C478   1.414       .  A
C477        C484   1.452       .  S
C478        C479   1.409       .  A
C479        C480   1.410       .  A
C479        C482   1.448       .  S
C480        C483   1.453       .  S
C481       C1564   1.449       .  S
C481        N488   1.156       .  T
C482        N487   1.155       .  T
C483        N485   1.158       .  T
C484        N486   1.157       .  T
C489        C490   1.425       .  A
C489        C494   1.431       .  A
C490        C491   1.410       .  A
C490        C495   1.451       .  S
C491        C492   1.405       .  A
C491        C498   1.451       .  S
C492        C493   1.409       .  A
C493        C494   1.419       .  A
C493        C496   1.451       .  S
C494        C497   1.451       .  S
C495        N502   1.158       .  T
C496        N501   1.157       .  T
C497        N499   1.158       .  T
C498        N500   1.158       .  T
C503        C504   1.412       .  A
C503        C508   1.409       .  A
C504        C505   1.413       .  A
C504        C509   1.433       .  S
C505        C506   1.412       .  A
C505        C512   1.448       .  S
C506        C507   1.403       .  A
C507        C508   1.392       .  A
C507        C510   1.458       .  S
C508        C511   1.421       .  S
C509        N516   1.151       .  T
C510        N515   1.157       .  T
C511        N513   1.146       .  T
C512        N514   1.157       .  T
C517        C518   1.410       .  A
C517        C522   1.412       .  A
C518        C519   1.415       .  A
C518        C523   1.453       .  S
C519        C520   1.433       .  A
C519        C526   1.450       .  S
C520        C521   1.420       .  A
C521        C522   1.419       .  A
C521        C524   1.452       .  S
C522        C525   1.446       .  S
C523        N530   1.157       .  T
C524       N1073   1.158       .  T
C525        N527   1.156       .  T
C526        N528   1.157       .  T
N529       C1068   1.158   1_545  T
C531        C532   1.420       .  A
C531        C536   1.431       .  A
C532        C533   1.405       .  A
C532        C537   1.434       .  S
C533        C534   1.415       .  A
C533        C540   1.453       .  S
C534        C535   1.417       .  A
C535        C536   1.424       .  A
C535        C538   1.452       .  S
C536        C539   1.446       .  S
C537        N544   1.153       .  T
C538        N543   1.157       .  T
C539        N541   1.156       .  T
C540        N542   1.157       .  T
O545       Cr563   1.978   1_556  S
O545        C553   1.266       .  A
O546       Cr563   2.005   1_556  S
O546        C547   1.256       .  A
C547        O548   1.254       .  A
C547       C1050   1.478       .  S
O548       Cr564   1.955       .  S
O549       Cr564   2.002       .  S
O549        C550   1.262       .  A
C550        O551   1.258       .  A
C550       C1036   1.488       .  S
O551       Cr565   1.986   1_556  S
O552       Cr565   2.036   1_556  S
O552        C553   1.277       .  A
C553       C1008   1.508       .  S
O554       Cr563   1.984       .  S
O554        C562   1.257       .  A
O555       Cr563   1.993       .  S
O555        C556   1.266       .  A
C556        O557   1.270       .  A
C556       C1078   1.511       .  S
O557       Cr564   2.010   1_554  S
O558       Cr564   1.967   1_554  S
O558        C559   1.260       .  A
C559        O560   1.275       .  A
C559       C1061   1.501       .  S
O560       Cr565   2.044       .  S
O561       Cr565   1.991       .  S
O561        C562   1.261       .  A
C562       C1022   1.484       .  S
Cr563       O566   1.783       .  S
Cr564       O566   1.756   1_556  S
Cr565       O566   1.768       .  S
O567       Cr585   1.968   1_554  S
O567        C575   1.258       .  A
O568       Cr585   2.000   1_554  S
O568        C569   1.266       .  A
C569        O570   1.261       .  A
C569        C991   1.499       .  S
O570       Cr586   1.988       .  S
O571       Cr586   1.998       .  S
O571        C572   1.261       .  A
C572        O573   1.255       .  A
C572        C938   1.479       .  S
O573       Cr587   1.985       .  S
O574       Cr587   2.008       .  S
O574        C575   1.266       .  A
C575        C977   1.474       .  S
O576       Cr585   2.006       .  S
O576        C584   1.264       .  A
O577       Cr585   1.983       .  S
O577        C578   1.263       .  A
C578        O579   1.265       .  A
C578        C963   1.485       .  S
O579       Cr586   2.019   1_556  S
O580       Cr586   1.973   1_556  S
O580        C581   1.262       .  A
C581        O582   1.275       .  A
C581        C924   1.489       .  S
O582       Cr587   2.034   1_556  S
O583       Cr587   1.968   1_556  S
O583        C584   1.258       .  A
C584        C949   1.477       .  S
Cr585       O588   1.766   1_556  S
Cr586       O588   1.775       .  S
Cr587       O588   1.775       .  S
C589        C644   1.496       .  S
C589        C590   1.420       .  A
C589       C1682   1.419       .  A
C590        C633   1.500       .  S
C590        C591   1.434       .  A
C591        C597   1.510       .  S
C592        C624   1.514       .  S
C592       C1681   1.435       .  A
C593        C615   1.500       .  S
C593       C1680   1.435   1_455  A
C594        C606   1.509   1_565  S
C594       C1677   1.419       .  A
C595        C935   1.513       .  S
C595        C596   1.415       .  A
C596        H601   1.082       .  S
C597        C598   1.404       .  A
C598        C599   1.399       .  A
C598        H602   1.083       .  S
C599        C910   1.490       .  S
C599        C600   1.402       .  A
C600        H603   1.084       .  S
C604       C1064   1.529       .  S
C604        C605   1.422       .  A
C604        C609   1.405   1_565  A
C605        C606   1.418   1_565  A
C605        H610   1.082       .  S
C607        C608   1.403       .  A
C607        H611   1.082       .  S
C608        C893   1.506       .  S
C609        H612   1.070       .  S
C613        C980   1.495       .  S
C613        C614   1.405       .  A
C613        C618   1.399       .  A
C614        C615   1.407       .  A
C614        H619   1.083       .  S
C615        C616   1.410       .  A
C616        C617   1.408       .  A
C616        H620   1.082       .  S
C617        C879   1.502       .  S
C617        C618   1.397       .  A
C618        H621   1.081       .  S
C622       C1019   1.503       .  S
C622        C623   1.408       .  A
C622       C1715   1.394   1_455  A
C623       C1712   1.408   1_455  A
C623        H628   1.082       .  S
C624       C1711   1.408       .  A
C624        C625   1.419       .  A
C625        C626   1.419       .  A
C625        H629   1.083       .  S
C626        C865   1.514       .  S
C626        C627   1.398       .  A
C627       C1710   1.394       .  A
C627        H630   1.075       .  S
C631        C851   1.485       .  S
C631        C632   1.405       .  A
C631        C636   1.407       .  A
C632        C633   1.395       .  A
C632        H637   1.082       .  S
C633        C634   1.394       .  A
C634        C635   1.417       .  A
C634        H638   1.059       .  S
C635       C1075   1.536       .  S
C635        C636   1.407       .  A
C636        H639   1.079       .  S
C640        C837   1.497       .  S
C640       C1729   1.406   1_455  A
C640        C645   1.405       .  A
C641       C1728   1.406       .  A
C641        C642   1.419       .  A
C641        H646   1.081       .  S
C642        C994   1.527       .  S
C642        C643   1.414       .  A
C643        C644   1.402       .  A
C643        H647   1.072       .  S
C644       C1733   1.401       .  A
C645       C1732   1.401       .  A
C645        H648   1.083       .  S
O649       Cr667   1.973       .  S
O649        C657   1.260       .  A
O650       Cr667   2.013       .  S
O650        C651   1.265       .  A
C651        O652   1.264       .  A
C651        C826   1.490       .  S
O652       Cr668   1.985       .  S
O653       Cr668   2.007       .  S
O653        C654   1.264       .  A
C654        O655   1.260       .  A
C654        C795   1.479       .  S
O655       Cr669   1.970       .  S
O656       Cr669   2.005       .  S
O656        C657   1.263       .  A
C657        C809   1.501       .  S
O658       Cr667   2.016       .  S
O658        C666   1.268       .  A
O659       Cr667   1.968       .  S
O659        C660   1.261       .  A
C660        O661   1.262       .  A
C660        C854   1.483       .  S
O661       Cr668   2.001       .  S
O662       Cr668   2.005       .  S
O662        C663   1.267       .  A
C663        O664   1.265       .  A
C663        C868   1.499       .  S
O664       Cr669   2.009       .  S
O665       Cr669   1.976       .  S
O665        C666   1.262       .  A
C666        C896   1.494       .  S
Cr667       O670   1.778       .  S
Cr668       O670   1.779       .  S
Cr669       O670   1.775       .  S
O671       Cr689   1.988       .  S
O671        C679   1.263       .  A
O672       Cr689   2.013       .  S
O672        C673   1.266       .  A
C673        O674   1.261       .  A
C673        C907   1.489       .  S
O674       Cr690   1.981       .  S
O675       Cr690   2.014       .  S
O675        C676   1.267       .  A
C676        O677   1.260       .  A
C676        C840   1.482       .  S
O677       Cr691   1.975       .  S
O678       Cr691   1.997       .  S
O678        C679   1.261       .  A
C679        C882   1.482       .  S
O680       Cr689   2.012       .  S
O680        C688   1.267       .  A
O681       Cr689   2.001       .  S
O681        C682   1.267       .  A
C682        O683   1.263       .  A
C682        C784   1.517       .  S
O683       Cr690   2.002       .  S
O684       Cr690   1.982       .  S
O684        C685   1.259       .  A
C685        O686   1.261       .  A
C685        C767   1.479       .  S
O686       Cr691   1.998       .  S
O687       Cr691   1.979       .  S
O687        C688   1.262       .  A
C688        C756   1.499       .  S
Cr689       O692   1.771       .  S
Cr690       O692   1.774       .  S
Cr691       O692   1.781       .  S
C693       C1825   1.509       .  S
C693        C694   1.423       .  A
C693       C1242   1.424       .  A
C694        C746   1.491       .  S
C694        C695   1.432   1_565  A
C696       C1809   1.518       .  S
C696       C1785   1.434       .  A
C697        C728   1.503       .  S
C697       C1784   1.434       .  A
C697        C698   1.427       .  A
C698        C701   1.503       .  S
C698       C1237   1.424       .  A
C699       C1033   1.526       .  S
C699        C700   1.417       .  A
C700        H705   1.079       .  S
C701        C702   1.399       .  A
C702        C703   1.398       .  A
C702        H706   1.084       .  S
C703        C812   1.488       .  S
C703        C704   1.405       .  A
C704        H707   1.080       .  S
C708        C921   1.526       .  S
C708        C709   1.419       .  A
C708        C713   1.415       .  A
C709        H714   1.081       .  S
C710        C781   1.503       .  S
C710        C711   1.407       .  A
C711        H715   1.082       .  S
C712        C713   1.410       .  A
C713        H716   1.081       .  S
C717        C798   1.540       .  S
C717       C1806   1.422       .  A
C717        C722   1.414       .  A
C718       C1805   1.422   1_455  A
C718        C719   1.405       .  A
C718        H723   1.079       .  S
C719       C1005   1.505       .  S
C719        C720   1.407       .  A
C720        C721   1.408       .  A
C720        H724   1.082       .  S
C721       C1784   1.518       .  S
C721       C1810   1.406   1_455  A
C722       C1809   1.406       .  A
C722        H725   1.058       .  S
C726        C952   1.511       .  S
C726        C727   1.406       .  A
C726        C731   1.416       .  A
C727        C728   1.391       .  A
C727        H732   1.082       .  S
C728        C729   1.403       .  A
C729        C730   1.421       .  A
C729        H733   1.071       .  S
C730        C753   1.544       .  S
C730        C731   1.424       .  A
C731        H734   1.074       .  S
C735        C770   1.494       .  S
C735        C736   1.402       .  A
C735        C740   1.399       .  A
C736        C737   1.403       .  A
C736        H741   1.084       .  S
C737       C1781   1.509       .  S
C737       C1826   1.414   1_455  A
C738       C1825   1.414       .  A
C738        C739   1.416       .  A
C738        H742   1.079       .  S
C739        C966   1.518       .  S
C739       C1828   1.406       .  A
C740       C1827   1.406   1_455  A
C740        H743   1.080       .  S
C744        C823   1.509       .  S
C744        C745   1.406       .  A
C744        C749   1.412       .  A
C745        C746   1.406       .  A
C745        H750   1.084       .  S
C746        C747   1.400       .  A
C747        C748   1.405       .  A
C747        H751   1.084       .  S
C748       C1047   1.502       .  S
C748        C749   1.414       .  A
C749        H752   1.083       .  S
C753        C754   1.431       .  A
C753        C758   1.436       .  A
C754        C755   1.407       .  A
C754        C759   1.441       .  S
C755        C756   1.404       .  A
C755        C762   1.444       .  S
C756        C757   1.407       .  A
C757        C758   1.417       .  A
C757        C760   1.453       .  S
C758        C761   1.435       .  S
C759        N766   1.157       .  T
C760        N765   1.157       .  T
C761        N763   1.154       .  T
C762        N764   1.153       .  T
C767        C768   1.411       .  A
C767        C772   1.411       .  A
C768        C769   1.409       .  A
C768        C773   1.450       .  S
C769        C770   1.416       .  A
C769        C776   1.452   1_455  S
C770        C771   1.417       .  A
C771        C772   1.410       .  A
C771        C774   1.450       .  S
C772        C775   1.449       .  S
C773        N780   1.157       .  T
C774        N779   1.157       .  T
C775        N777   1.156       .  T
C776        N778   1.157       .  T
C781        C782   1.407       .  A
C781        C786   1.410       .  A
C782        C783   1.417       .  A
C783        C784   1.427       .  A
C783        C790   1.446       .  S
C784        C785   1.417       .  A
C785        C786   1.415       .  A
C785        C788   1.447       .  S
C786        C789   1.442       .  S
C787        N794   1.155       .  T
C788        N793   1.155       .  T
C789        N791   1.154       .  T
C790        N792   1.155       .  T
C795        C796   1.402       .  A
C795        C800   1.401       .  A
C796        C797   1.414       .  A
C796        C801   1.459       .  S
C797        C798   1.444       .  A
C797        C804   1.448       .  S
C798        C799   1.433       .  A
C799        C800   1.410       .  A
C799        C802   1.450       .  S
C800        C803   1.451       .  S
C801        N808   1.158       .  T
C802        N807   1.157       .  T
C803        N805   1.157       .  T
C804        N806   1.159       .  T
C809        C810   1.419       .  A
C809        C814   1.423       .  A
C810        C811   1.406       .  A
C810        C815   1.445       .  S
C811        C812   1.398       .  A
C811        C818   1.440       .  S
C812        C813   1.405       .  A
C813        C814   1.414       .  A
C814        C817   1.451       .  S
C815        N822   1.157       .  T
C816        N821   1.154       .  T
C817        N819   1.158       .  T
C818        N820   1.154       .  T
C823        C824   1.417       .  A
C823        C828   1.416       .  A
C824        C825   1.415       .  A
C824        C829   1.450       .  S
C825        C826   1.415       .  A
C825        C832   1.448       .  S
C826        C827   1.407       .  A
C827        C828   1.411       .  A
C827        C830   1.454       .  S
C828        C831   1.434       .  S
C829        N836   1.157       .  T
C830        N835   1.158       .  T
C831        N833   1.151       .  T
C832        N834   1.157       .  T
C837        C838   1.406       .  A
C837        C842   1.405       .  A
C838        C839   1.414       .  A
C838        C843   1.434   1_455  S
C839        C840   1.413       .  A
C839        C846   1.451       .  S
C840        C841   1.410       .  A
C841        C842   1.408       .  A
C841        C844   1.447       .  S
C842        C845   1.438       .  S
C843        N850   1.151       .  T
C844        N849   1.156       .  T
C845        N847   1.153       .  T
C846        N848   1.157   1_455  T
C851        C852   1.413       .  A
C851        C856   1.410       .  A
C852        C853   1.400       .  A
C852        C857   1.451       .  S
C853        C854   1.408       .  A
C853        C860   1.444       .  S
C854        C855   1.420       .  A
C855        C856   1.409       .  A
C855        C858   1.448       .  S
C856        C859   1.450       .  S
C857        N864   1.157       .  T
C858        N863   1.158       .  T
C859        N861   1.157       .  T
C860        N862   1.154       .  T
C865        C866   1.427       .  A
C865        C870   1.418       .  A
C866        C867   1.413       .  A
C866        C871   1.451       .  S
C867        C868   1.406       .  A
C867        C874   1.447       .  S
C868        C869   1.415       .  A
C869        C870   1.417       .  A
C869        C872   1.447       .  S
C870        C873   1.451       .  S
C871        N878   1.157       .  T
C872        N877   1.156       .  T
C873       N1963   1.157       .  T
C874        N876   1.155       .  T
N875       C1961   1.157   1_455  T
C879        C880   1.423       .  A
C879        C884   1.418       .  A
C880        C881   1.410       .  A
C880        C885   1.452       .  S
C881        C882   1.407       .  A
C881        C888   1.452       .  S
C882        C883   1.412       .  A
C883        C884   1.412       .  A
C883        C886   1.452       .  S
C884        C887   1.451       .  S
C885        N892   1.158       .  T
C886        N891   1.157       .  T
C887        N889   1.157       .  T
C888        N890   1.157       .  T
C893        C894   1.420       .  A
C893        C898   1.418       .  A
C894        C895   1.414       .  A
C894        C899   1.452       .  S
C895        C896   1.415       .  A
C895        C902   1.450       .  S
C896        C897   1.410       .  A
C897        C898   1.407       .  A
C897        C900   1.443       .  S
C898        C901   1.451       .  S
C899        N906   1.158       .  T
C900        N905   1.153       .  T
C901        N903   1.157       .  T
C902        N904   1.157       .  T
C907        C908   1.412       .  A
C907        C912   1.415       .  A
C908        C909   1.406       .  A
C908        C913   1.447       .  S
C909        C910   1.404       .  A
C909        C916   1.441       .  S
C910        C911   1.412       .  A
C911        C912   1.414       .  A
C912        C915   1.446       .  S
C913        N920   1.157       .  T
C914        N919   1.157       .  T
C915        N917   1.156       .  T
C916        N918   1.155       .  T
C921        C922   1.427       .  A
C921        C926   1.432       .  A
C922        C923   1.416       .  A
C922        C927   1.448       .  S
C923        C924   1.406       .  A
C923        C930   1.447       .  S
C924        C925   1.406       .  A
C925        C926   1.413       .  A
C925        C928   1.452       .  S
C926        C929   1.451       .  S
C927        N934   1.157       .  T
C928        N933   1.158       .  T
C929        N931   1.158       .  T
C930        N932   1.155       .  T
C935        C936   1.424       .  A
C935        C940   1.426       .  A
C936        C937   1.413       .  A
C936        C941   1.447       .  S
C937        C938   1.402       .  A
C937        C944   1.441       .  S
C938        C939   1.395       .  A
C939        C940   1.405       .  A
C939        C942   1.451       .  S
C941        N948   1.155       .  T
C942        N947   1.156       .  T
C943        N945   1.158       .  T
C944        N946   1.154       .  T
C949        C950   1.396       .  A
C949        C954   1.407       .  A
C950        C951   1.405       .  A
C950        C955   1.448       .  S
C951        C952   1.422       .  A
C951        C958   1.439       .  S
C952        C953   1.423       .  A
C953        C954   1.414       .  A
C953        C956   1.451       .  S
C954        C957   1.449       .  S
C955        N962   1.153       .  T
C956        N961   1.158       .  T
C957        N959   1.158       .  T
C958        N960   1.153       .  T
C963        C964   1.411       .  A
C963        C968   1.405       .  A
C964        C965   1.417       .  A
C964        C969   1.451       .  S
C965        C966   1.423       .  A
C965        C972   1.449       .  S
C966        C967   1.427       .  A
C967        C968   1.412       .  A
C967        C970   1.449       .  S
C968        C971   1.451       .  S
C969        N976   1.157       .  T
C970        N975   1.156       .  T
C971        N973   1.157       .  T
C972       N2062   1.157       .  T
N974       C2060   1.157   1_455  T
C977        C978   1.405       .  A
C977        C982   1.402       .  A
C978        C979   1.408       .  A
C978        C983   1.449       .  S
C979        C980   1.416       .  A
C979        C986   1.448       .  S
C980        C981   1.420       .  A
C981        C982   1.406       .  A
C981        C984   1.445       .  S
C982        C985   1.449       .  S
C983        N990   1.157       .  T
C984        N989   1.155       .  T
C985        N987   1.157       .  T
C986        N988   1.156       .  T
C991        C992   1.412       .  A
C991        C996   1.417       .  A
C992        C993   1.401       .  A
C992        C997   1.456       .  S
C993        C994   1.423       .  A
C993       C1000   1.444       .  S
C994        C995   1.427       .  A
C995        C996   1.420       .  A
C995       C2086   1.450       .  S
C996        C999   1.452       .  S
C997       N1004   1.158       .  T
C998       C2083   1.450   1_455  S
C998       N1003   1.157       .  T
C999       N1001   1.158       .  T
C1000      N1002   1.158       .  T
C1005      C1006   1.411       .  A
C1005      C1010   1.407       .  A
C1006      C1007   1.416       .  A
C1006      C2099   1.444   1_455  S
C1007      C1008   1.419       .  A
C1007      C1014   1.451       .  S
C1008      C1009   1.423       .  A
C1009      C1010   1.417       .  A
C1009      C1012   1.451       .  S
C1010      C1013   1.444       .  S
C1011      C2094   1.444       .  S
C1011      N1018   1.154       .  T
C1012      N1017   1.157       .  T
C1013      N1015   1.156       .  T
C1014      N1016   1.158   1_455  T
C1019      C1020   1.416       .  A
C1019      C1024   1.425       .  A
C1020      C1021   1.409       .  A
C1020      C2113   1.449       .  S
C1021      C1022   1.413       .  A
C1021      C1028   1.452       .  S
C1022      C1023   1.408       .  A
C1023      C1024   1.410       .  A
C1023      C1026   1.449       .  S
C1024      C1027   1.453       .  S
C1025      C2108   1.449       .  S
C1025      N1032   1.156       .  T
C1026      N1031   1.155       .  T
C1027      N1029   1.158       .  T
C1028      N1030   1.157       .  T
C1033      C1034   1.425       .  A
C1033      C1038   1.431       .  A
C1034      C1035   1.410       .  A
C1034      C1039   1.451       .  S
C1035      C1036   1.404       .  A
C1035      C1042   1.450       .  S
C1036      C1037   1.409       .  A
C1037      C1038   1.419       .  A
C1037      C1040   1.451       .  S
C1038      C1041   1.451       .  S
C1039      N1046   1.158       .  T
C1040      N1045   1.157       .  T
C1041      N1043   1.158       .  T
C1042      N1044   1.158       .  T
C1047      C1048   1.412       .  A
C1047      C1052   1.409       .  A
C1048      C1049   1.413       .  A
C1048      C1053   1.433       .  S
C1049      C1050   1.412       .  A
C1049      C1056   1.448       .  S
C1050      C1051   1.403       .  A
C1051      C1052   1.392       .  A
C1051      C1054   1.457       .  S
C1052      C1055   1.421       .  S
C1053      N1060   1.151       .  T
C1054      N1059   1.157       .  T
C1055      N1057   1.146       .  T
C1056      N1058   1.157       .  T
C1061      C1062   1.410       .  A
C1061      C1066   1.412       .  A
C1062      C1063   1.415       .  A
C1062      C1067   1.453       .  S
C1063      C1064   1.434       .  A
C1063      C1070   1.451       .  S
C1064      C1065   1.420       .  A
C1065      C1066   1.419       .  A
C1065      C1068   1.452       .  S
C1066      C1069   1.446       .  S
C1067      N1074   1.157       .  T
C1069      N1071   1.156       .  T
C1070      N1072   1.157       .  T
C1075      C1076   1.420       .  A
C1075      C1080   1.431       .  A
C1076      C1077   1.405       .  A
C1076      C1081   1.433       .  S
C1077      C1078   1.415       .  A
C1077      C1084   1.454       .  S
C1078      C1079   1.417       .  A
C1079      C1080   1.424       .  A
C1079      C1082   1.452       .  S
C1080      C1083   1.446       .  S
C1081      N1088   1.153       .  T
C1082      N1087   1.157       .  T
C1083      N1085   1.156       .  T
C1084      N1086   1.157       .  T
O1089     Cr1107   1.978   1_556  S
O1089      C1097   1.266       .  A
O1090     Cr1107   2.005   1_556  S
O1090      C1091   1.256       .  A
C1091      O1092   1.254       .  A
C1091      C1594   1.478       .  S
O1092     Cr1108   1.955       .  S
O1093     Cr1108   2.001       .  S
O1093      C1094   1.262       .  A
C1094      O1095   1.259       .  A
C1094      C1580   1.487       .  S
O1095     Cr1109   1.986   1_556  S
O1096     Cr1109   2.037   1_556  S
O1096      C1097   1.278       .  A
C1097      C1552   1.508       .  S
O1098     Cr1107   1.983       .  S
O1098      C1106   1.257       .  A
O1099     Cr1107   1.992       .  S
O1099      C1100   1.266       .  A
C1100      O1101   1.270       .  A
C1100      C1622   1.511       .  S
O1101     Cr1108   2.011   1_554  S
O1102     Cr1108   1.965   1_554  S
O1102      C1103   1.260       .  A
C1103      O1104   1.275       .  A
C1103      C1605   1.500       .  S
O1104     Cr1109   2.043       .  S
O1105     Cr1109   1.992       .  S
O1105      C1106   1.261       .  A
C1106      C1566   1.484       .  S
Cr1107     O1110   1.783       .  S
Cr1108     O1110   1.756   1_556  S
Cr1109     O1110   1.768       .  S
O1111     Cr1129   1.968   1_554  S
O1111      C1119   1.258       .  A
O1112     Cr1129   2.000   1_554  S
O1112      C1113   1.266       .  A
C1113      O1114   1.261       .  A
C1113      C1535   1.500       .  S
O1114     Cr1130   1.988       .  S
O1115     Cr1130   1.997       .  S
O1115      C1116   1.261       .  A
C1116      O1117   1.254       .  A
C1116      C1482   1.478       .  S
O1117     Cr1131   1.984       .  S
O1118     Cr1131   2.008       .  S
O1118      C1119   1.266       .  A
C1119      C1521   1.474       .  S
O1120     Cr1129   2.006       .  S
O1120      C1128   1.264       .  A
O1121     Cr1129   1.983       .  S
O1121      C1122   1.263       .  A
C1122      O1123   1.265       .  A
C1122      C1507   1.485       .  S
O1123     Cr1130   2.018   1_556  S
O1124     Cr1130   1.974   1_556  S
O1124      C1125   1.262       .  A
C1125      O1126   1.275       .  A
C1125      C1468   1.489       .  S
O1126     Cr1131   2.035   1_556  S
O1127     Cr1131   1.966   1_556  S
O1127      C1128   1.258       .  A
C1128      C1493   1.476       .  S
Cr1129     O1132   1.766   1_556  S
Cr1130     O1132   1.774       .  S
Cr1131     O1132   1.774       .  S
C1133      C1188   1.497       .  S
C1133      C1134   1.421   1_455  A
C1134      C1177   1.500       .  S
C1134      C1135   1.434       .  A
C1135      C1141   1.510       .  S
C1135      C1680   1.425       .  A
C1136      C1168   1.514       .  S
C1136      C1679   1.425   1_545  A
C1137      C1159   1.500       .  S
C1137      C1682   1.436   1_545  A
C1138      C1150   1.508       .  S
C1138      C1681   1.436       .  A
C1139      C1479   1.513       .  S
C1139      C1140   1.415       .  A
C1139      C1688   1.413   1_545  A
C1140      C1685   1.422   1_545  A
C1140      H1145   1.082       .  S
C1141      C1684   1.422       .  A
C1141      C1142   1.405       .  A
C1142      C1143   1.400       .  A
C1142      H1146   1.083       .  S
C1143      C1454   1.491       .  S
C1143      C1144   1.402       .  A
C1144      C1683   1.413       .  A
C1144      H1147   1.084       .  S
C1148      C1608   1.528       .  S
C1148      C1149   1.421       .  A
C1148      C1153   1.404       .  A
C1149      C1150   1.418       .  A
C1149      H1154   1.082       .  S
C1150      C1695   1.401       .  A
C1151      C1694   1.401       .  A
C1151      C1152   1.403       .  A
C1151      H1155   1.082       .  S
C1152      C1437   1.506       .  S
C1152      C1697   1.406       .  A
C1153      C1696   1.406       .  A
C1153      H1156   1.070       .  S
C1157      C1524   1.495       .  S
C1157      C1158   1.405       .  A
C1157      C1162   1.399       .  A
C1158      C1159   1.407       .  A
C1158      H1163   1.083       .  S
C1159      C1160   1.410       .  A
C1160      C1161   1.409       .  A
C1160      H1164   1.082       .  S
C1161      C1423   1.502       .  S
C1161      C1162   1.397       .  A
C1162      H1165   1.081       .  S
C1166      C1563   1.503       .  S
C1166      C1167   1.407       .  A
C1167      H1172   1.082       .  S
C1168      C1169   1.419       .  A
C1169      C1170   1.419       .  A
C1169      H1173   1.083       .  S
C1170      C1409   1.515       .  S
C1170      C1171   1.398       .  A
C1171      H1174   1.075       .  S
C1175      C1395   1.486       .  S
C1175      C1176   1.405       .  A
C1175      C1180   1.407       .  A
C1176      C1177   1.395       .  A
C1176      H1181   1.082       .  S
C1177      C1178   1.394       .  A
C1178      C1179   1.417       .  A
C1178      H1182   1.060       .  S
C1179      C1619   1.536       .  S
C1179      C1180   1.408       .  A
C1180      H1183   1.079       .  S
C1184      C1381   1.497       .  S
C1184      C1189   1.404       .  A
C1185      C1186   1.419       .  A
C1185      H1190   1.080       .  S
C1186      C1538   1.528       .  S
C1186      C1187   1.414       .  A
C1187      C1188   1.402   1_655  A
C1187      H1191   1.071       .  S
C1189      H1192   1.083       .  S
O1193     Cr1211   1.973       .  S
O1193      C1201   1.260       .  A
O1194     Cr1211   2.013       .  S
O1194      C1195   1.265       .  A
C1195      O1196   1.264       .  A
C1195      C1370   1.490       .  S
O1196     Cr1212   1.985       .  S
O1197     Cr1212   2.008       .  S
O1197      C1198   1.264       .  A
C1198      O1199   1.260       .  A
C1198      C1339   1.480       .  S
O1199     Cr1213   1.970       .  S
O1200     Cr1213   2.004       .  S
O1200      C1201   1.262       .  A
C1201      C1353   1.501       .  S
O1202     Cr1211   2.017       .  S
O1202      C1210   1.268       .  A
O1203     Cr1211   1.967       .  S
O1203      C1204   1.261       .  A
C1204      O1205   1.263       .  A
C1204      C1398   1.483       .  S
O1205     Cr1212   2.002       .  S
O1206     Cr1212   2.005       .  S
O1206      C1207   1.267       .  A
C1207      O1208   1.265       .  A
C1207      C1412   1.500       .  S
O1208     Cr1213   2.009       .  S
O1209     Cr1213   1.976       .  S
O1209      C1210   1.262       .  A
C1210      C1440   1.494       .  S
Cr1211     O1214   1.778       .  S
Cr1212     O1214   1.779       .  S
Cr1213     O1214   1.775       .  S
O1215     Cr1233   1.987       .  S
O1215      C1223   1.263       .  A
O1216     Cr1233   2.014       .  S
O1216      C1217   1.266       .  A
C1217      O1218   1.262       .  A
C1217      C1451   1.490       .  S
O1218     Cr1234   1.982       .  S
O1219     Cr1234   2.014       .  S
O1219      C1220   1.267       .  A
C1220      O1221   1.260       .  A
C1220      C1384   1.482       .  S
O1221     Cr1235   1.976       .  S
O1222     Cr1235   1.997       .  S
O1222      C1223   1.261       .  A
C1223      C1426   1.481       .  S
O1224     Cr1233   2.012       .  S
O1224      C1232   1.267       .  A
O1225     Cr1233   2.001       .  S
O1225      C1226   1.267       .  A
C1226      O1227   1.264       .  A
C1226      C1328   1.517       .  S
O1227     Cr1234   2.002       .  S
O1228     Cr1234   1.981       .  S
O1228      C1229   1.259       .  A
C1229      O1230   1.261       .  A
C1229      C1311   1.478       .  S
O1230     Cr1235   1.998       .  S
O1231     Cr1235   1.980       .  S
O1231      C1232   1.262       .  A
C1232      C1300   1.499       .  S
Cr1233     O1236   1.771       .  S
Cr1234     O1236   1.774       .  S
Cr1235     O1236   1.781       .  S
C1237      C1238   1.423   1_455  A
C1238      C1290   1.491       .  S
C1238      C1239   1.431       .  A
C1239      C1800   1.514       .  S
C1239      C1784   1.435   1_655  A
C1240      C1783   1.435   1_455  A
C1241      C1272   1.502       .  S
C1241      C1242   1.427   1_545  A
C1242      C1245   1.504       .  S
C1243      C1577   1.525       .  S
C1243      C1244   1.417       .  A
C1243      C1792   1.413       .  A
C1244      C1789   1.409       .  A
C1244      H1249   1.079       .  S
C1245      C1788   1.409       .  A
C1245      C1246   1.399   1_565  A
C1246      C1247   1.398       .  A
C1246      H1250   1.084       .  S
C1247      C1356   1.487       .  S
C1247      C1248   1.405       .  A
C1248      C1787   1.414   1_545  A
C1248      H1251   1.080       .  S
C1252      C1465   1.527       .  S
C1252      C1253   1.419       .  A
C1252      C1257   1.416       .  A
C1253      C1798   1.408   1_545  A
C1253      H1258   1.080       .  S
C1254      C1325   1.503       .  S
C1254      C1797   1.408       .  A
C1254      C1255   1.406       .  A
C1255      C1800   1.409       .  A
C1255      H1259   1.082       .  S
C1256      C1783   1.515       .  S
C1256      C1799   1.410   1_545  A
C1256      C1257   1.411       .  A
C1257      H1260   1.081       .  S
C1261      C1342   1.540       .  S
C1261      C1266   1.414       .  A
C1262      C1263   1.405       .  A
C1262      H1267   1.079       .  S
C1263      C1549   1.506       .  S
C1263      C1264   1.407       .  A
C1264      C1265   1.409       .  A
C1264      H1268   1.082       .  S
C1266      H1269   1.058       .  S
C1270      C1496   1.511       .  S
C1270      C1271   1.406       .  A
C1270      C1275   1.416       .  A
C1271      C1272   1.391       .  A
C1271      H1276   1.082       .  S
C1272      C1273   1.403       .  A
C1273      C1274   1.421       .  A
C1273      H1277   1.071       .  S
C1274      C1297   1.544       .  S
C1274      C1275   1.424       .  A
C1275      H1278   1.074       .  S
C1279      C1314   1.494       .  S
C1279      C1280   1.402       .  A
C1279      C1284   1.399       .  A
C1280      C1281   1.402       .  A
C1280      H1285   1.084       .  S
C1282      C1283   1.417       .  A
C1282      H1286   1.079       .  S
C1283      C1510   1.518       .  S
C1284      H1287   1.079       .  S
C1288      C1367   1.509       .  S
C1288      C1289   1.406       .  A
C1288      C1293   1.412       .  A
C1289      C1290   1.406       .  A
C1289      H1294   1.083       .  S
C1290      C1291   1.400       .  A
C1291      C1292   1.406       .  A
C1291      H1295   1.084       .  S
C1292      C1591   1.503       .  S
C1292      C1293   1.414       .  A
C1293      H1296   1.083       .  S
C1297      C1298   1.432       .  A
C1297      C1302   1.436       .  A
C1298      C1299   1.407       .  A
C1298      C1303   1.441       .  S
C1299      C1300   1.404       .  A
C1299      C1306   1.445       .  S
C1300      C1301   1.407       .  A
C1301      C1302   1.417       .  A
C1301      C1304   1.453       .  S
C1302      C1305   1.435       .  S
C1303      N1310   1.157       .  T
C1304      N1309   1.157       .  T
C1305      N1307   1.154       .  T
C1306      N1308   1.154       .  T
C1311      C1312   1.410       .  A
C1311      C1316   1.410       .  A
C1312      C1313   1.408       .  A
C1312      C1317   1.450       .  S
C1313      C1314   1.416       .  A
C1313      C1320   1.452       .  S
C1314      C1315   1.417       .  A
C1315      C1316   1.409       .  A
C1315      C1318   1.450       .  S
C1316      C1319   1.449       .  S
C1317      N1324   1.157       .  T
C1318      N1323   1.157       .  T
C1319      N1321   1.156       .  T
C1320      N1322   1.157       .  T
C1325      C1326   1.407       .  A
C1325      C1330   1.410       .  A
C1326      C1327   1.416       .  A
C1326      C1875   1.447       .  S
C1327      C1328   1.427       .  A
C1327      C1334   1.446       .  S
C1328      C1329   1.417       .  A
C1329      C1330   1.415       .  A
C1329      C1332   1.447       .  S
C1330      C1333   1.442       .  S
C1331      C1870   1.447   1_545  S
C1331      N1338   1.155       .  T
C1332      N1337   1.155       .  T
C1333      N1335   1.154       .  T
C1334      N1336   1.155       .  T
C1339      C1340   1.402       .  A
C1339      C1344   1.401       .  A
C1340      C1341   1.414       .  A
C1340      C1345   1.459       .  S
C1341      C1342   1.444       .  A
C1341      C1348   1.448       .  S
C1342      C1343   1.432       .  A
C1343      C1344   1.410       .  A
C1343      C1346   1.450       .  S
C1344      C1347   1.450       .  S
C1345      N1352   1.158       .  T
C1346      N1351   1.157       .  T
C1347      N1349   1.157       .  T
C1348      N1350   1.159       .  T
C1353      C1354   1.418       .  A
C1353      C1358   1.423       .  A
C1354      C1355   1.406       .  A
C1354      C1359   1.445       .  S
C1355      C1356   1.398       .  A
C1355      C1362   1.440       .  S
C1356      C1357   1.405       .  A
C1357      C1358   1.414       .  A
C1357      C1904   1.444   1_545  S
C1358      C1361   1.451       .  S
C1359      N1366   1.157       .  T
C1360      C1901   1.444       .  S
C1360      N1365   1.154       .  T
C1361      N1363   1.158       .  T
C1362      N1364   1.154       .  T
C1367      C1368   1.417       .  A
C1367      C1372   1.416       .  A
C1368      C1369   1.415       .  A
C1368      C1373   1.450       .  S
C1369      C1370   1.414       .  A
C1369      C1376   1.448       .  S
C1370      C1371   1.407       .  A
C1371      C1372   1.411       .  A
C1371      C1374   1.454       .  S
C1372      C1375   1.434       .  S
C1373      N1380   1.157       .  T
C1374      N1379   1.158       .  T
C1375      N1377   1.151       .  T
C1376      N1378   1.157       .  T
C1381      C1382   1.405       .  A
C1381      C1386   1.405       .  A
C1382      C1383   1.414       .  A
C1382      C1387   1.433       .  S
C1383      C1384   1.413       .  A
C1383      C1390   1.451       .  S
C1384      C1385   1.410       .  A
C1385      C1386   1.408       .  A
C1385      C1388   1.447       .  S
C1386      C1389   1.439       .  S
C1387      N1394   1.151       .  T
C1388      N1393   1.156       .  T
C1389      N1391   1.153       .  T
C1390      N1392   1.157       .  T
C1395      C1396   1.413       .  A
C1395      C1400   1.410       .  A
C1396      C1397   1.400       .  A
C1396      C1401   1.451       .  S
C1397      C1398   1.408       .  A
C1397      C1404   1.444       .  S
C1398      C1399   1.420       .  A
C1399      C1400   1.409       .  A
C1399      C1402   1.448       .  S
C1400      C1403   1.450       .  S
C1401      N1408   1.157       .  T
C1402      N1407   1.158       .  T
C1403      N1405   1.157       .  T
C1404      N1406   1.154       .  T
C1409      C1410   1.427       .  A
C1409      C1414   1.418       .  A
C1410      C1411   1.413       .  A
C1410      C1415   1.451       .  S
C1411      C1412   1.406       .  A
C1411      C1418   1.448       .  S
C1412      C1413   1.415       .  A
C1413      C1414   1.417       .  A
C1413      C1416   1.447       .  S
C1414      C1417   1.451       .  S
C1415      N1422   1.157       .  T
C1416      N1421   1.156       .  T
C1418      N1420   1.155       .  T
C1423      C1424   1.423       .  A
C1423      C1428   1.418       .  A
C1424      C1425   1.409       .  A
C1424      C1429   1.452       .  S
C1425      C1426   1.407       .  A
C1425      C1432   1.452       .  S
C1426      C1427   1.412       .  A
C1427      C1428   1.412       .  A
C1427      C1430   1.452       .  S
C1428      C1431   1.451       .  S
C1429      N1436   1.158       .  T
C1430      N1435   1.157       .  T
C1431      N1433   1.157       .  T
C1432      N1434   1.157       .  T
C1437      C1438   1.420       .  A
C1437      C1442   1.418       .  A
C1438      C1439   1.414       .  A
C1438      C1443   1.452       .  S
C1439      C1440   1.415       .  A
C1439      C1446   1.450       .  S
C1440      C1441   1.410       .  A
C1441      C1442   1.407       .  A
C1441      C1444   1.443       .  S
C1442      C1445   1.451       .  S
C1443      N1450   1.158   1_545  T
C1444      N1449   1.153       .  T
C1445      N1447   1.157       .  T
C1446      N1448   1.157       .  T
C1451      C1452   1.412       .  A
C1451      C1456   1.415       .  A
C1452      C1453   1.406       .  A
C1452      C1457   1.447       .  S
C1453      C1454   1.404       .  A
C1453      C1460   1.441       .  S
C1454      C1455   1.412       .  A
C1455      C1456   1.415       .  A
C1455      C2002   1.448       .  S
C1456      C1459   1.446       .  S
C1457      N1464   1.157       .  T
C1458      C1999   1.448   1_545  S
C1458      N1463   1.157       .  T
C1459      N1461   1.156       .  T
C1460      N1462   1.155       .  T
C1465      C1466   1.427       .  A
C1465      C1470   1.431       .  A
C1466      C1467   1.417       .  A
C1466      C1471   1.448       .  S
C1467      C1468   1.406       .  A
C1467      C1474   1.447       .  S
C1468      C1469   1.406       .  A
C1469      C1470   1.413       .  A
C1469      C1472   1.451       .  S
C1470      C1473   1.450       .  S
C1471      N1478   1.157       .  T
C1472      N1477   1.158       .  T
C1473      N1475   1.158   1_545  T
C1474      N1476   1.155       .  T
C1479      C1480   1.424       .  A
C1479      C1484   1.426       .  A
C1480      C1481   1.412       .  A
C1480      C1485   1.447       .  S
C1481      C1482   1.402       .  A
C1481      C1488   1.441       .  S
C1482      C1483   1.395       .  A
C1483      C1484   1.405       .  A
C1483      C1486   1.451       .  S
C1484      C2031   1.439       .  S
C1485      N1492   1.155       .  T
C1486      N1491   1.156   1_554  T
C1487      C2028   1.439       .  S
C1487      N1489   1.158       .  T
C1488      N1490   1.154       .  T
C1493      C1494   1.396       .  A
C1493      C1498   1.407       .  A
C1494      C1495   1.405       .  A
C1494      C1499   1.449       .  S
C1495      C1496   1.422       .  A
C1495      C1502   1.439       .  S
C1496      C1497   1.424       .  A
C1497      C1498   1.414       .  A
C1497      C1500   1.451       .  S
C1498      C1501   1.449       .  S
C1499      N1506   1.153       .  T
C1500      N1505   1.158       .  T
C1501      N1503   1.158       .  T
C1502      N1504   1.153       .  T
C1507      C1508   1.411       .  A
C1507      C1512   1.405       .  A
C1508      C1509   1.417       .  A
C1508      C1513   1.451       .  S
C1509      C1510   1.423       .  A
C1509      C1516   1.449       .  S
C1510      C1511   1.428       .  A
C1511      C1512   1.412       .  A
C1511      C1514   1.449       .  S
C1512      C1515   1.451       .  S
C1513      N1520   1.157       .  T
C1514      N1519   1.156       .  T
C1515      N1517   1.157       .  T
C1521      C1522   1.405       .  A
C1521      C1526   1.402       .  A
C1522      C1523   1.408       .  A
C1522      C1527   1.449       .  S
C1523      C1524   1.416       .  A
C1523      C1530   1.448       .  S
C1524      C1525   1.420       .  A
C1525      C1526   1.406       .  A
C1525      C1528   1.445       .  S
C1526      C1529   1.449       .  S
C1527      N1534   1.157       .  T
C1528      N1533   1.155       .  T
C1529      N1531   1.157       .  T
C1530      N1532   1.156       .  T
C1535      C1536   1.412       .  A
C1535      C1540   1.417       .  A
C1536      C1537   1.401       .  A
C1536      C1541   1.457       .  S
C1537      C1538   1.424       .  A
C1537      C1544   1.444       .  S
C1538      C1539   1.428       .  A
C1539      C1540   1.420       .  A
C1540      C1543   1.452       .  S
C1541      N1548   1.158       .  T
C1542      N1547   1.157       .  T
C1543      N1545   1.158       .  T
C1544      N1546   1.158       .  T
C1549      C1550   1.411       .  A
C1549      C1554   1.407       .  A
C1550      C1551   1.416       .  A
C1551      C1552   1.419       .  A
C1551      C1558   1.451       .  S
C1552      C1553   1.423       .  A
C1553      C1554   1.417       .  A
C1553      C1556   1.451       .  S
C1554      C1557   1.444       .  S
C1555      N1562   1.154       .  T
C1556      N1561   1.157       .  T
C1557      N1559   1.156       .  T
C1558      N1560   1.158       .  T
C1563      C1564   1.415       .  A
C1563      C1568   1.424       .  A
C1564      C1565   1.408       .  A
C1565      C1566   1.414       .  A
C1565      C1572   1.452       .  S
C1566      C1567   1.409       .  A
C1567      C1568   1.410       .  A
C1567      C1570   1.448       .  S
C1568      C1571   1.453       .  S
C1569      N1576   1.156   1_455  T
C1570      N1575   1.155       .  T
C1571      N1573   1.158       .  T
C1572      N1574   1.157       .  T
C1577      C1578   1.425       .  A
C1577      C1582   1.431       .  A
C1578      C1579   1.410       .  A
C1578      C1583   1.451       .  S
C1579      C1580   1.405       .  A
C1579      C1586   1.451       .  S
C1580      C1581   1.409       .  A
C1581      C1582   1.419       .  A
C1581      C1584   1.451       .  S
C1582      C1585   1.451       .  S
C1583      N1590   1.158       .  T
C1584      N1589   1.157       .  T
C1585      N1587   1.158       .  T
C1586      N1588   1.158       .  T
C1591      C1592   1.412       .  A
C1591      C1596   1.409       .  A
C1592      C1593   1.413       .  A
C1592      C1597   1.433       .  S
C1593      C1594   1.412       .  A
C1593      C1600   1.448       .  S
C1594      C1595   1.403       .  A
C1595      C1596   1.392       .  A
C1595      C1598   1.458       .  S
C1596      C1599   1.421       .  S
C1597      N1604   1.151       .  T
C1598      N1603   1.157       .  T
C1599      N1601   1.146       .  T
C1600      N1602   1.157       .  T
C1605      C1606   1.410       .  A
C1605      C1610   1.412       .  A
C1606      C1607   1.415       .  A
C1606      C1611   1.453       .  S
C1607      C1608   1.433       .  A
C1607      C1614   1.450       .  S
C1608      C1609   1.420       .  A
C1609      C1610   1.419       .  A
C1609      C1612   1.452       .  S
C1610      C1613   1.446       .  S
C1611      N1618   1.157       .  T
C1612      N2161   1.158       .  T
C1613      N1615   1.156       .  T
C1614      N1616   1.157       .  T
N1617      C2156   1.158   1_545  T
C1619      C1620   1.420       .  A
C1619      C1624   1.431       .  A
C1620      C1621   1.405       .  A
C1620      C1625   1.434       .  S
C1621      C1622   1.415       .  A
C1621      C1628   1.453       .  S
C1622      C1623   1.417       .  A
C1623      C1624   1.424       .  A
C1623      C1626   1.452       .  S
C1624      C1627   1.446       .  S
C1625      N1632   1.153       .  T
C1626      N1631   1.157       .  T
C1627      N1629   1.156       .  T
C1628      N1630   1.157       .  T
O1633     Cr1651   1.978   1_556  S
O1633      C1641   1.266       .  A
O1634     Cr1651   2.005   1_556  S
O1634      C1635   1.256       .  A
C1635      O1636   1.254       .  A
C1635      C2138   1.478       .  S
O1636     Cr1652   1.955       .  S
O1637     Cr1652   2.002       .  S
O1637      C1638   1.262       .  A
C1638      O1639   1.258       .  A
C1638      C2124   1.488       .  S
O1639     Cr1653   1.986   1_556  S
O1640     Cr1653   2.036   1_556  S
O1640      C1641   1.277       .  A
C1641      C2096   1.508       .  S
O1642     Cr1651   1.984       .  S
O1642      C1650   1.257       .  A
O1643     Cr1651   1.993       .  S
O1643      C1644   1.266       .  A
C1644      O1645   1.270       .  A
C1644      C2166   1.511       .  S
O1645     Cr1652   2.010   1_554  S
O1646     Cr1652   1.967   1_554  S
O1646      C1647   1.260       .  A
C1647      O1648   1.275       .  A
C1647      C2149   1.501       .  S
O1648     Cr1653   2.044       .  S
O1649     Cr1653   1.991       .  S
O1649      C1650   1.261       .  A
C1650      C2110   1.484       .  S
Cr1651     O1654   1.783       .  S
Cr1652     O1654   1.756   1_556  S
Cr1653     O1654   1.768       .  S
O1655     Cr1673   1.968   1_554  S
O1655      C1663   1.258       .  A
O1656     Cr1673   2.000   1_554  S
O1656      C1657   1.266       .  A
C1657      O1658   1.261       .  A
C1657      C2079   1.499       .  S
O1658     Cr1674   1.988       .  S
O1659     Cr1674   1.998       .  S
O1659      C1660   1.261       .  A
C1660      O1661   1.255       .  A
C1660      C2026   1.479       .  S
O1661     Cr1675   1.985       .  S
O1662     Cr1675   2.008       .  S
O1662      C1663   1.266       .  A
C1663      C2065   1.474       .  S
O1664     Cr1673   2.006       .  S
O1664      C1672   1.264       .  A
O1665     Cr1673   1.983       .  S
O1665      C1666   1.263       .  A
C1666      O1667   1.265       .  A
C1666      C2051   1.485       .  S
O1667     Cr1674   2.019   1_556  S
O1668     Cr1674   1.973   1_556  S
O1668      C1669   1.262       .  A
C1669      O1670   1.275       .  A
C1669      C2012   1.489       .  S
O1670     Cr1675   2.034   1_556  S
O1671     Cr1675   1.968   1_556  S
O1671      C1672   1.258       .  A
C1672      C2037   1.477       .  S
Cr1673     O1676   1.766   1_556  S
Cr1674     O1676   1.775       .  S
Cr1675     O1676   1.775       .  S
C1677      C1732   1.496       .  S
C1677      C1678   1.420   1_455  A
C1678      C1721   1.500       .  S
C1678      C1679   1.434       .  A
C1679      C1685   1.510       .  S
C1680      C1712   1.514       .  S
C1681      C1703   1.500       .  S
C1682      C1694   1.509   1_565  S
C1683      C2023   1.513       .  S
C1683      C1684   1.415       .  A
C1684      H1689   1.082       .  S
C1685      C1686   1.404       .  A
C1686      C1687   1.399       .  A
C1686      H1690   1.083       .  S
C1687      C1998   1.490       .  S
C1687      C1688   1.402       .  A
C1688      H1691   1.084       .  S
C1692      C2152   1.529       .  S
C1692      C1693   1.422       .  A
C1692      C1697   1.405   1_565  A
C1693      C1694   1.418   1_565  A
C1693      H1698   1.082       .  S
C1695      C1696   1.403       .  A
C1695      H1699   1.082       .  S
C1696      C1981   1.506       .  S
C1697      H1700   1.070       .  S
C1701      C2068   1.495       .  S
C1701      C1702   1.405       .  A
C1701      C1706   1.399       .  A
C1702      C1703   1.407       .  A
C1702      H1707   1.083       .  S
C1703      C1704   1.410       .  A
C1704      C1705   1.408       .  A
C1704      H1708   1.082       .  S
C1705      C1967   1.502       .  S
C1705      C1706   1.397       .  A
C1706      H1709   1.081       .  S
C1710      C2107   1.503       .  S
C1710      C1711   1.408       .  A
C1711      H1716   1.082       .  S
C1712      C1713   1.419       .  A
C1713      C1714   1.419       .  A
C1713      H1717   1.083       .  S
C1714      C1953   1.514       .  S
C1714      C1715   1.398       .  A
C1715      H1718   1.075       .  S
C1719      C1939   1.485       .  S
C1719      C1720   1.405       .  A
C1719      C1724   1.407       .  A
C1720      C1721   1.395       .  A
C1720      H1725   1.082       .  S
C1721      C1722   1.394       .  A
C1722      C1723   1.417       .  A
C1722      H1726   1.059       .  S
C1723      C2163   1.536       .  S
C1723      C1724   1.407       .  A
C1724      H1727   1.079       .  S
C1728      C1925   1.497       .  S
C1728      C1733   1.405       .  A
C1729      C1730   1.419       .  A
C1729      H1734   1.081       .  S
C1730      C2082   1.527       .  S
C1730      C1731   1.414       .  A
C1731      C1732   1.402   1_655  A
C1731      H1735   1.072       .  S
C1733      H1736   1.083       .  S
O1737     Cr1755   1.973       .  S
O1737      C1745   1.260       .  A
O1738     Cr1755   2.013       .  S
O1738      C1739   1.265       .  A
C1739      O1740   1.264       .  A
C1739      C1914   1.490       .  S
O1740     Cr1756   1.985       .  S
O1741     Cr1756   2.007       .  S
O1741      C1742   1.264       .  A
C1742      O1743   1.260       .  A
C1742      C1883   1.479       .  S
O1743     Cr1757   1.970       .  S
O1744     Cr1757   2.005       .  S
O1744      C1745   1.263       .  A
C1745      C1897   1.501       .  S
O1746     Cr1755   2.016       .  S
O1746      C1754   1.268       .  A
O1747     Cr1755   1.968       .  S
O1747      C1748   1.261       .  A
C1748      O1749   1.262       .  A
C1748      C1942   1.483       .  S
O1749     Cr1756   2.001       .  S
O1750     Cr1756   2.005       .  S
O1750      C1751   1.267       .  A
C1751      O1752   1.265       .  A
C1751      C1956   1.499       .  S
O1752     Cr1757   2.009       .  S
O1753     Cr1757   1.976       .  S
O1753      C1754   1.262       .  A
C1754      C1984   1.494       .  S
Cr1755     O1758   1.778       .  S
Cr1756     O1758   1.779       .  S
Cr1757     O1758   1.775       .  S
O1759     Cr1777   1.988       .  S
O1759      C1767   1.263       .  A
O1760     Cr1777   2.013       .  S
O1760      C1761   1.266       .  A
C1761      O1762   1.261       .  A
C1761      C1995   1.489       .  S
O1762     Cr1778   1.981       .  S
O1763     Cr1778   2.014       .  S
O1763      C1764   1.267       .  A
C1764      O1765   1.260       .  A
C1764      C1928   1.482       .  S
O1765     Cr1779   1.975       .  S
O1766     Cr1779   1.997       .  S
O1766      C1767   1.261       .  A
C1767      C1970   1.482       .  S
O1768     Cr1777   2.012       .  S
O1768      C1776   1.267       .  A
O1769     Cr1777   2.001       .  S
O1769      C1770   1.267       .  A
C1770      O1771   1.263       .  A
C1770      C1872   1.517       .  S
O1771     Cr1778   2.002       .  S
O1772     Cr1778   1.982       .  S
O1772      C1773   1.259       .  A
C1773      O1774   1.261       .  A
C1773      C1855   1.479       .  S
O1774     Cr1779   1.998       .  S
O1775     Cr1779   1.979       .  S
O1775      C1776   1.262       .  A
C1776      C1844   1.499       .  S
Cr1777     O1780   1.771       .  S
Cr1778     O1780   1.774       .  S
Cr1779     O1780   1.781       .  S
C1781      C1782   1.423   1_455  A
C1782      C1834   1.491       .  S
C1782      C1783   1.432   1_565  A
C1785      C1816   1.503       .  S
C1785      C1786   1.427       .  A
C1786      C1789   1.503       .  S
C1787      C2121   1.526       .  S
C1787      C1788   1.417       .  A
C1788      H1793   1.079       .  S
C1789      C1790   1.399       .  A
C1790      C1791   1.398       .  A
C1790      H1794   1.084       .  S
C1791      C1900   1.488       .  S
C1791      C1792   1.405       .  A
C1792      H1795   1.080       .  S
C1796      C2009   1.526       .  S
C1796      C1797   1.419       .  A
C1796      C1801   1.415       .  A
C1797      H1802   1.081       .  S
C1798      C1869   1.503       .  S
C1798      C1799   1.407       .  A
C1799      H1803   1.082       .  S
C1800      C1801   1.410       .  A
C1801      H1804   1.081       .  S
C1805      C1886   1.540       .  S
C1805      C1810   1.414       .  A
C1806      C1807   1.405       .  A
C1806      H1811   1.079       .  S
C1807      C2093   1.505       .  S
C1807      C1808   1.407       .  A
C1808      C1809   1.408       .  A
C1808      H1812   1.082       .  S
C1810      H1813   1.058       .  S
C1814      C2040   1.511       .  S
C1814      C1815   1.406       .  A
C1814      C1819   1.416       .  A
C1815      C1816   1.391       .  A
C1815      H1820   1.082       .  S
C1816      C1817   1.403       .  A
C1817      C1818   1.421       .  A
C1817      H1821   1.071       .  S
C1818      C1841   1.544       .  S
C1818      C1819   1.424       .  A
C1819      H1822   1.074       .  S
C1823      C1858   1.494       .  S
C1823      C1824   1.402       .  A
C1823      C1828   1.399       .  A
C1824      C1825   1.403       .  A
C1824      H1829   1.084       .  S
C1826      C1827   1.416       .  A
C1826      H1830   1.079       .  S
C1827      C2054   1.518       .  S
C1828      H1831   1.080       .  S
C1832      C1911   1.509       .  S
C1832      C1833   1.406       .  A
C1832      C1837   1.412       .  A
C1833      C1834   1.406       .  A
C1833      H1838   1.084       .  S
C1834      C1835   1.400       .  A
C1835      C1836   1.405       .  A
C1835      H1839   1.084       .  S
C1836      C2135   1.502       .  S
C1836      C1837   1.414       .  A
C1837      H1840   1.083       .  S
C1841      C1842   1.431       .  A
C1841      C1846   1.436       .  A
C1842      C1843   1.407       .  A
C1842      C1847   1.441       .  S
C1843      C1844   1.404       .  A
C1843      C1850   1.444       .  S
C1844      C1845   1.407       .  A
C1845      C1846   1.417       .  A
C1845      C1848   1.453       .  S
C1846      C1849   1.435       .  S
C1847      N1854   1.157       .  T
C1848      N1853   1.157       .  T
C1849      N1851   1.154       .  T
C1850      N1852   1.153       .  T
C1855      C1856   1.411       .  A
C1855      C1860   1.411       .  A
C1856      C1857   1.409       .  A
C1856      C1861   1.450       .  S
C1857      C1858   1.416       .  A
C1857      C1864   1.452       .  S
C1858      C1859   1.417       .  A
C1859      C1860   1.410       .  A
C1859      C1862   1.450       .  S
C1860      C1863   1.449       .  S
C1861      N1868   1.157       .  T
C1862      N1867   1.157       .  T
C1863      N1865   1.156       .  T
C1864      N1866   1.157       .  T
C1869      C1870   1.407       .  A
C1869      C1874   1.410       .  A
C1870      C1871   1.417       .  A
C1871      C1872   1.427       .  A
C1871      C1878   1.446       .  S
C1872      C1873   1.417       .  A
C1873      C1874   1.415       .  A
C1873      C1876   1.447       .  S
C1874      C1877   1.442       .  S
C1875      N1882   1.155       .  T
C1876      N1881   1.155       .  T
C1877      N1879   1.154       .  T
C1878      N1880   1.155       .  T
C1883      C1884   1.402       .  A
C1883      C1888   1.401       .  A
C1884      C1885   1.414       .  A
C1884      C1889   1.459       .  S
C1885      C1886   1.444       .  A
C1885      C1892   1.448       .  S
C1886      C1887   1.433       .  A
C1887      C1888   1.410       .  A
C1887      C1890   1.450       .  S
C1888      C1891   1.451       .  S
C1889      N1896   1.158       .  T
C1890      N1895   1.157       .  T
C1891      N1893   1.157       .  T
C1892      N1894   1.159       .  T
C1897      C1898   1.419       .  A
C1897      C1902   1.423       .  A
C1898      C1899   1.406       .  A
C1898      C1903   1.445       .  S
C1899      C1900   1.398       .  A
C1899      C1906   1.440       .  S
C1900      C1901   1.405       .  A
C1901      C1902   1.414       .  A
C1902      C1905   1.451       .  S
C1903      N1910   1.157       .  T
C1904      N1909   1.154       .  T
C1905      N1907   1.158       .  T
C1906      N1908   1.154       .  T
C1911      C1912   1.417       .  A
C1911      C1916   1.416       .  A
C1912      C1913   1.415       .  A
C1912      C1917   1.450       .  S
C1913      C1914   1.415       .  A
C1913      C1920   1.448       .  S
C1914      C1915   1.407       .  A
C1915      C1916   1.411       .  A
C1915      C1918   1.454       .  S
C1916      C1919   1.434       .  S
C1917      N1924   1.157       .  T
C1918      N1923   1.158       .  T
C1919      N1921   1.151       .  T
C1920      N1922   1.157       .  T
C1925      C1926   1.406       .  A
C1925      C1930   1.405       .  A
C1926      C1927   1.414       .  A
C1926      C1931   1.434       .  S
C1927      C1928   1.413       .  A
C1927      C1934   1.451       .  S
C1928      C1929   1.410       .  A
C1929      C1930   1.408       .  A
C1929      C1932   1.447       .  S
C1930      C1933   1.438       .  S
C1931      N1938   1.151       .  T
C1932      N1937   1.156       .  T
C1933      N1935   1.153       .  T
C1934      N1936   1.157       .  T
C1939      C1940   1.413       .  A
C1939      C1944   1.410       .  A
C1940      C1941   1.400       .  A
C1940      C1945   1.451       .  S
C1941      C1942   1.408       .  A
C1941      C1948   1.444       .  S
C1942      C1943   1.420       .  A
C1943      C1944   1.409       .  A
C1943      C1946   1.448       .  S
C1944      C1947   1.450       .  S
C1945      N1952   1.157       .  T
C1946      N1951   1.158       .  T
C1947      N1949   1.157       .  T
C1948      N1950   1.154       .  T
C1953      C1954   1.427       .  A
C1953      C1958   1.418       .  A
C1954      C1955   1.413       .  A
C1954      C1959   1.451       .  S
C1955      C1956   1.406       .  A
C1955      C1962   1.447       .  S
C1956      C1957   1.415       .  A
C1957      C1958   1.417       .  A
C1957      C1960   1.447       .  S
C1958      C1961   1.451       .  S
C1959      N1966   1.157       .  T
C1960      N1965   1.156       .  T
C1962      N1964   1.155       .  T
C1967      C1968   1.423       .  A
C1967      C1972   1.418       .  A
C1968      C1969   1.410       .  A
C1968      C1973   1.452       .  S
C1969      C1970   1.407       .  A
C1969      C1976   1.452       .  S
C1970      C1971   1.412       .  A
C1971      C1972   1.412       .  A
C1971      C1974   1.452       .  S
C1972      C1975   1.451       .  S
C1973      N1980   1.158       .  T
C1974      N1979   1.157       .  T
C1975      N1977   1.157       .  T
C1976      N1978   1.157       .  T
C1981      C1982   1.420       .  A
C1981      C1986   1.418       .  A
C1982      C1983   1.414       .  A
C1982      C1987   1.452       .  S
C1983      C1984   1.415       .  A
C1983      C1990   1.450       .  S
C1984      C1985   1.410       .  A
C1985      C1986   1.407       .  A
C1985      C1988   1.443       .  S
C1986      C1989   1.451       .  S
C1987      N1994   1.158       .  T
C1988      N1993   1.153       .  T
C1989      N1991   1.157       .  T
C1990      N1992   1.157       .  T
C1995      C1996   1.412       .  A
C1995      C2000   1.415       .  A
C1996      C1997   1.406       .  A
C1996      C2001   1.447       .  S
C1997      C1998   1.404       .  A
C1997      C2004   1.441       .  S
C1998      C1999   1.412       .  A
C1999      C2000   1.414       .  A
C2000      C2003   1.446       .  S
C2001      N2008   1.157       .  T
C2002      N2007   1.157       .  T
C2003      N2005   1.156       .  T
C2004      N2006   1.155       .  T
C2009      C2010   1.427       .  A
C2009      C2014   1.432       .  A
C2010      C2011   1.416       .  A
C2010      C2015   1.448       .  S
C2011      C2012   1.406       .  A
C2011      C2018   1.447       .  S
C2012      C2013   1.406       .  A
C2013      C2014   1.413       .  A
C2013      C2016   1.452       .  S
C2014      C2017   1.451       .  S
C2015      N2022   1.157       .  T
C2016      N2021   1.158       .  T
C2017      N2019   1.158       .  T
C2018      N2020   1.155       .  T
C2023      C2024   1.424       .  A
C2023      C2028   1.426       .  A
C2024      C2025   1.413       .  A
C2024      C2029   1.447       .  S
C2025      C2026   1.402       .  A
C2025      C2032   1.441       .  S
C2026      C2027   1.395       .  A
C2027      C2028   1.405       .  A
C2027      C2030   1.451       .  S
C2029      N2036   1.155       .  T
C2030      N2035   1.156       .  T
C2031      N2033   1.158       .  T
C2032      N2034   1.154       .  T
C2037      C2038   1.396       .  A
C2037      C2042   1.407       .  A
C2038      C2039   1.405       .  A
C2038      C2043   1.448       .  S
C2039      C2040   1.422       .  A
C2039      C2046   1.439       .  S
C2040      C2041   1.423       .  A
C2041      C2042   1.414       .  A
C2041      C2044   1.451       .  S
C2042      C2045   1.449       .  S
C2043      N2050   1.153       .  T
C2044      N2049   1.158       .  T
C2045      N2047   1.158       .  T
C2046      N2048   1.153       .  T
C2051      C2052   1.411       .  A
C2051      C2056   1.405       .  A
C2052      C2053   1.417       .  A
C2052      C2057   1.451       .  S
C2053      C2054   1.423       .  A
C2053      C2060   1.449       .  S
C2054      C2055   1.427       .  A
C2055      C2056   1.412       .  A
C2055      C2058   1.449       .  S
C2056      C2059   1.451       .  S
C2057      N2064   1.157       .  T
C2058      N2063   1.156       .  T
C2059      N2061   1.157       .  T
C2065      C2066   1.405       .  A
C2065      C2070   1.402       .  A
C2066      C2067   1.408       .  A
C2066      C2071   1.449       .  S
C2067      C2068   1.416       .  A
C2067      C2074   1.448       .  S
C2068      C2069   1.420       .  A
C2069      C2070   1.406       .  A
C2069      C2072   1.445       .  S
C2070      C2073   1.449       .  S
C2071      N2078   1.157       .  T
C2072      N2077   1.155       .  T
C2073      N2075   1.157       .  T
C2074      N2076   1.156       .  T
C2079      C2080   1.412       .  A
C2079      C2084   1.417       .  A
C2080      C2081   1.401       .  A
C2080      C2085   1.456       .  S
C2081      C2082   1.423       .  A
C2081      C2088   1.444       .  S
C2082      C2083   1.427       .  A
C2083      C2084   1.420       .  A
C2084      C2087   1.452       .  S
C2085      N2092   1.158       .  T
C2086      N2091   1.157       .  T
C2087      N2089   1.158       .  T
C2088      N2090   1.158       .  T
C2093      C2094   1.411       .  A
C2093      C2098   1.407       .  A
C2094      C2095   1.416       .  A
C2095      C2096   1.419       .  A
C2095      C2102   1.451       .  S
C2096      C2097   1.423       .  A
C2097      C2098   1.417       .  A
C2097      C2100   1.451       .  S
C2098      C2101   1.444       .  S
C2099      N2106   1.154       .  T
C2100      N2105   1.157       .  T
C2101      N2103   1.156       .  T
C2102      N2104   1.158       .  T
C2107      C2108   1.416       .  A
C2107      C2112   1.425       .  A
C2108      C2109   1.409       .  A
C2109      C2110   1.413       .  A
C2109      C2116   1.452       .  S
C2110      C2111   1.408       .  A
C2111      C2112   1.410       .  A
C2111      C2114   1.449       .  S
C2112      C2115   1.453       .  S
C2113      N2120   1.156   1_455  T
C2114      N2119   1.155       .  T
C2115      N2117   1.158       .  T
C2116      N2118   1.157       .  T
C2121      C2122   1.425       .  A
C2121      C2126   1.431       .  A
C2122      C2123   1.410       .  A
C2122      C2127   1.451       .  S
C2123      C2124   1.404       .  A
C2123      C2130   1.450       .  S
C2124      C2125   1.409       .  A
C2125      C2126   1.419       .  A
C2125      C2128   1.451       .  S
C2126      C2129   1.451       .  S
C2127      N2134   1.158       .  T
C2128      N2133   1.157       .  T
C2129      N2131   1.158       .  T
C2130      N2132   1.158       .  T
C2135      C2136   1.412       .  A
C2135      C2140   1.409       .  A
C2136      C2137   1.413       .  A
C2136      C2141   1.433       .  S
C2137      C2138   1.412       .  A
C2137      C2144   1.448       .  S
C2138      C2139   1.403       .  A
C2139      C2140   1.392       .  A
C2139      C2142   1.457       .  S
C2140      C2143   1.421       .  S
C2141      N2148   1.151       .  T
C2142      N2147   1.157       .  T
C2143      N2145   1.146       .  T
C2144      N2146   1.157       .  T
C2149      C2150   1.410       .  A
C2149      C2154   1.412       .  A
C2150      C2151   1.415       .  A
C2150      C2155   1.453       .  S
C2151      C2152   1.434       .  A
C2151      C2158   1.451       .  S
C2152      C2153   1.420       .  A
C2153      C2154   1.419       .  A
C2153      C2156   1.452       .  S
C2154      C2157   1.446       .  S
C2155      N2162   1.157       .  T
C2157      N2159   1.156       .  T
C2158      N2160   1.157       .  T
C2163      C2164   1.420       .  A
C2163      C2168   1.431       .  A
C2164      C2165   1.405       .  A
C2164      C2169   1.433       .  S
C2165      C2166   1.415       .  A
C2165      C2172   1.454       .  S
C2166      C2167   1.417       .  A
C2167      C2168   1.424       .  A
C2167      C2170   1.452       .  S
C2168      C2171   1.446       .  S
C2169      N2176   1.153       .  T
C2170      N2175   1.157       .  T
C2171      N2173   1.156       .  T
C2172      N2174   1.157       .  T
