geometry optimzed in LAMMPS
_audit_creation_date              2020-11-30 
_audit_creation_method            'lammps2cif' 
_symmetry_space_group_name_H-M    'P1' 
_symmetry_Int_Tables_number       1 
_symmetry_cell_setting            triclinic 
loop_ 
_symmetry_equiv_pos_as_xyz 
  x,y,z 
_cell_length_a                    43.96106682 
_cell_length_b                    43.96668200720651 
_cell_length_c                    53.057369615898516 
_cell_angle_alpha                 89.97918647439803 
_cell_angle_beta                  90.02295669380575 
_cell_angle_gamma                 120.03728582214737 
loop_ 
_atom_site_label 
_atom_site_type_symbol 
_atom_site_fract_x 
_atom_site_fract_y 
_atom_site_fract_z 
_atom_site_charge 
N1          N  0.34891540  0.04026305  0.70897077     0.00800
C2          C  0.31900416  0.01803397  0.69633714     0.03400
C3          C  0.29533785  0.02994449  0.69789324    -0.19500
C4          C  0.31060092  0.05959556  0.71257601    -0.19700
C5          C  0.34311265  0.06489897  0.71962859     0.03300
H6          H  0.26798008  0.51576861  0.69225747     0.17100
H7          H  0.29725786  0.07254085  0.72036895     0.17100
N8          N  0.44682670  0.06044405  0.69082521     0.00800
C9          C  0.47653847  0.08318957  0.70338062     0.03400
C10         C  0.00078098  0.07203492  0.70187292    -0.19500
C11         C  0.48611972  0.04237813  0.68716801    -0.19700
C12         C  0.45328145  0.03628089  0.68016927     0.03300
H13         H  0.02812646  0.08676939  0.70747230     0.17100
H14         H  0.99991067  0.02994310  0.67936240     0.17100
N15         N  0.27596399  0.39269680  0.85605804     0.00800
C16         C  0.26805261  0.41464663  0.86881670     0.03400
C17         C  0.23237366  0.40232344  0.86749080    -0.19500
C18         C  0.21809703  0.37267379  0.85282811    -0.19700
C19         C  0.24548213  0.36781388  0.84551743     0.03300
H20         H  0.21900133  0.41622867  0.87325341     0.17100
H21         H  0.19170920  0.35948470  0.84516532     0.17100
N22         N  0.35283056  0.37205096  0.87602480     0.00800
C23         C  0.36011634  0.34944329  0.86362763     0.03400
C24         C  0.39547418  0.36046823  0.86567282    -0.19500
C25         C  0.41014494  0.39004626  0.88043226    -0.19700
C26         C  0.38327635  0.39612434  0.88702433     0.03300
H27         H  0.40817496  0.34576592  0.86027503     0.17100
H28         H  0.43626455  0.40244585  0.88853511     0.17100
N29         N  0.44297803  0.22865033  0.52228826     0.00800
C30         C  0.43485172  0.25025462  0.53531784     0.03400
C31         C  0.39908514  0.23756057  0.53422384    -0.19500
C32         C  0.38495611  0.20805745  0.51939353    -0.19700
C33         C  0.41250612  0.20359140  0.51188412     0.03300
H34         H  0.38547112  0.25104771  0.54039780     0.17100
H35         H  0.35842623  0.19446559  0.51199947     0.17100
N36         N  0.02001278  0.20806348  0.54161539     0.00800
C37         C  0.02747043  0.18602334  0.52858006     0.03400
C38         C  0.06303632  0.19776028  0.52986817    -0.19500
C39         C  0.07766769  0.22711108  0.54485992    -0.19700
C40         C  0.05060300  0.23240581  0.55232053     0.03300
H41         H  0.07602205  0.18355790  0.52390010     0.17100
H42         H  0.10402919  0.23980484  0.55254914     0.17100
N43         N  0.28049827  0.22674445  0.02357036     0.00800
C44         C  0.31021460  0.24854070  0.03657690     0.03400
C45         C  0.33403567  0.23687071  0.03474760    -0.19500
C46         C  0.31919577  0.20790725  0.01938949    -0.19700
C47         C  0.28665750  0.20259543  0.01237987     0.03300
H48         H  0.36125939  0.25089903  0.04069920     0.17100
H49         H  0.33273021  0.19528918  0.01138062     0.17100
N50         N  0.18316442  0.20632077  0.04406501     0.00800
C51         C  0.15326024  0.18473025  0.03115573     0.03400
C52         C  0.13006606  0.19721385  0.03259660    -0.19500
C53         C  0.14552904  0.22660144  0.04751751    -0.19700
C54         C  0.17771647  0.23120849  0.05476300     0.03300
H55         H  0.10286995  0.18363940  0.02658181     0.17100
H56         H  0.13255533  0.23999782  0.05516100     0.17100
N57         N  0.01692546  0.37513886  0.37668113     0.00800
C58         C  0.48730271  0.35386349  0.36336082     0.03400
C59         C  0.46461585  0.36701245  0.36415591    -0.19500
C60         C  0.48005873  0.39640135  0.37912066    -0.19700
C61         C  0.01173277  0.40034724  0.38711988     0.03300
H62         H  0.43757133  0.35379657  0.35781150     0.17100
H63         H  0.46716307  0.41004621  0.38644747     0.17100
N64         N  0.11443560  0.39536081  0.35729822     0.00800
C65         C  0.14377865  0.41732516  0.37054443     0.03400
C66         C  0.16754079  0.40549524  0.36956133    -0.19500
C67         C  0.15301650  0.37625529  0.35443785    -0.19700
C68         C  0.12074610  0.37100794  0.34674173     0.03300
H69         H  0.19458534  0.41953085  0.37590477     0.17100
H70         H  0.16668093  0.36344325  0.34699317     0.17100
N71         N  0.11049655  0.06077491  0.18966818     0.00800
C72         C  0.10218479  0.08222001  0.20275240     0.03400
C73         C  0.06644799  0.06955566  0.20132419    -0.19500
C74         C  0.05257322  0.04028277  0.18626073    -0.19700
C75         C  0.08020052  0.03587778  0.17887045     0.03300
H76         H  0.05275491  0.08302759  0.20735169     0.17100
H77         H  0.02622480  0.02695591  0.17853746     0.17100
N78         N  0.18827494  0.04095980  0.20838938     0.00800
C79         C  0.19579024  0.01899049  0.19526991     0.03400
C80         C  0.23138633  0.03081412  0.19662538    -0.19500
C81         C  0.24592769  0.06002482  0.21179086    -0.19700
C82         C  0.21881499  0.06529907  0.21914760     0.03300
H83         H  0.24447964  0.51678534  0.19045367     0.17100
H84         H  0.27231317  0.07283757  0.21944518     0.17100
N85         N  0.05344950  0.33593572  0.85613014     0.00800
C86         C  0.03202655  0.30632687  0.86939476     0.03400
C87         C  0.04535755  0.28377621  0.86893816    -0.19500
C88         C  0.07494996  0.29925494  0.85418266    -0.19700
C89         C  0.07886357  0.33081343  0.84603102     0.03300
H90         H  0.03214391  0.25675161  0.87531818     0.17100
H91         H  0.08880566  0.28644271  0.84710340     0.17100
N92         N  0.07310496  0.43363262  0.87434153     0.00800
C93         C  0.09512714  0.46297019  0.86110506     0.03400
C94         C  0.08340216  0.48681908  0.86221305    -0.19500
C95         C  0.05416030  0.47230556  0.87736258    -0.19700
C96         C  0.04884870  0.43999120  0.88501511     0.03300
H97         H  0.09748737  0.01391666  0.85594561     0.17100
H98         H  0.04146353  0.48603269  0.88490068     0.17100
N99         N  0.38611220  0.34068643  0.69057801     0.00800
C100        C  0.36414466  0.34801340  0.70383555     0.03400
C101        C  0.37574079  0.38355721  0.70264696    -0.19500
C102        C  0.40486517  0.39830136  0.68741202    -0.19700
C103        C  0.41022431  0.37132992  0.67980683     0.03300
H104        H  0.36160253  0.39646497  0.70893701     0.17100
H105        H  0.41751981  0.42472957  0.67985475     0.17100
N106        N  0.40728587  0.26400947  0.70988325     0.00800
C107        C  0.42855906  0.25585795  0.69643483     0.03400
C108        C  0.41552585  0.22001464  0.69711191    -0.19500
C109        C  0.38631869  0.20589100  0.71225047    -0.19700
C110        C  0.38225042  0.23348686  0.72027199     0.03300
H111        H  0.42877625  0.20631758  0.69059981     0.17100
H112        H  0.37276606  0.17929816  0.71952132     0.17100
N113        N  0.22064427  0.17028573  0.52286883     0.00800
C114        C  0.19909486  0.14057677  0.53595160     0.03400
C115        C  0.21126714  0.11713502  0.53426879    -0.19500
C116        C  0.24038328  0.13230822  0.51904064    -0.19700
C117        C  0.24512091  0.16454812  0.51182710     0.03300
H118        H  0.19756095  0.08994145  0.54027720     0.17100
H119        H  0.25337725  0.11907403  0.51114650     0.17100
N120        N  0.24072343  0.26768691  0.54247422     0.00800
C121        C  0.26328518  0.29783798  0.53024047     0.03400
C122        C  0.25173594  0.32175521  0.53217575    -0.19500
C123        C  0.22190887  0.30635297  0.54667895    -0.19700
C124        C  0.21613873  0.27349827  0.55320618     0.03300
H125        H  0.26616497  0.34920774  0.52683750     0.17100
H126        H  0.20904656  0.31967366  0.55465254     0.17100
N127        N  0.22117809  0.00662021  0.02370812     0.00800
C128        C  0.19950739  0.51424449  0.03705131     0.03400
C129        C  0.21185464  0.05001979  0.03615638    -0.19500
C130        C  0.24109719  0.06449295  0.02101334    -0.19700
C131        C  0.24578108  0.03718729  0.01313787     0.03300
H132        H  0.19815177  0.06331587  0.04256657     0.17100
H133        H  0.25420407  0.09102285  0.01362143     0.17100
N134        N  0.24038357  0.42844779  0.04266122     0.00800
C135        C  0.26204220  0.42030788  0.02968410     0.03400
C136        C  0.24887485  0.38445375  0.03035672    -0.19500
C137        C  0.21907764  0.37029181  0.04490130    -0.19700
C138        C  0.21491977  0.39789413  0.05279514     0.03300
H139        H  0.26224078  0.37071204  0.02419925     0.17100
H140        H  0.20524603  0.34364724  0.05206602     0.17100
N141        N  0.07430543  0.09674390  0.37643871     0.00800
C142        C  0.09612463  0.08876272  0.36356104     0.03400
C143        C  0.08438873  0.05325139  0.36557416    -0.19500
C144        C  0.05524235  0.03917827  0.38075472    -0.19700
C145        C  0.05005314  0.06650174  0.38762781     0.03300
H146        H  0.09840043  0.03998828  0.35980719     0.17100
H147        H  0.04252551  0.01305507  0.38885762     0.17100
N148        N  0.05377629  0.17401131  0.35737636     0.00800
C149        C  0.03081185  0.18109995  0.36952826     0.03400
C150        C  0.04148988  0.21634498  0.36718053    -0.19500
C151        C  0.07112428  0.23111630  0.35247986    -0.19700
C152        C  0.07774611  0.20448642  0.34631088     0.03300
H153        H  0.52658444  0.22888802  0.37239359     0.17100
H154        H  0.08334733  0.25713804  0.34423167     0.17100
N155        N  0.40891046  0.10048378  0.20918227     0.00800
C156        C  0.38449236  0.10677739  0.21969111     0.03400
C157        C  0.38931085  0.13872438  0.21156534    -0.19500
C158        C  0.41844472  0.15318041  0.19634647    -0.19700
C159        C  0.43061977  0.12968683  0.19571359     0.03300
H160        H  0.37635973  0.15234856  0.21882448     0.17100
H161        H  0.43228017  0.18013837  0.18980560     0.17100
N162        N  0.38784258  0.50271315  0.18953880     0.00800
C163        C  0.36655636  0.47329530  0.20301461     0.03400
C164        C  0.37935788  0.45031704  0.20221293    -0.19500
C165        C  0.40848084  0.46531390  0.18699113    -0.19700
C166        C  0.41268132  0.49706090  0.17899371     0.03300
H167        H  0.36602391  0.42335929  0.20874709     0.17100
H168        H  0.42186064  0.45215827  0.17964610     0.17100
N169        N  0.27522992  0.33565094  0.35813133     0.00800
C170        C  0.26786920  0.30640540  0.37149595     0.03400
C171        C  0.23218429  0.28283584  0.37080929    -0.19500
C172        C  0.21741262  0.29734272  0.35571826    -0.19700
C173        C  0.24450300  0.32936747  0.34764702     0.03300
H174        H  0.21912436  0.25579494  0.37716353     0.17100
H175        H  0.19085842  0.28362999  0.34837627     0.17100
N176        N  0.35231738  0.43357776  0.37700103     0.00800
C177        C  0.36003768  0.46322296  0.36399928     0.03400
C178        C  0.39568006  0.48682006  0.36525808    -0.19500
C179        C  0.41013209  0.47183252  0.38016256    -0.19700
C180        C  0.38290030  0.43949212  0.38751669     0.03300
H181        H  0.40892692  0.01395507  0.35909741     0.17100
H182        H  0.43660919  0.48515073  0.38765854     0.17100
N183        N  0.18431780  0.09772373  0.70895310     0.00800
C184        C  0.19249838  0.12730905  0.69567385     0.03400
C185        C  0.22833921  0.15014928  0.69649846    -0.19500
C186        C  0.24241768  0.13482350  0.71144125    -0.19700
C187        C  0.21479396  0.10306965  0.71934340     0.03300
H188        H  0.24206715  0.17722012  0.69021629     0.17100
H189        H  0.26897376  0.14781560  0.71878694     0.17100
N190        N  0.10633974  0.49982571  0.69079937     0.00800
C191        C  0.09911588  0.47019793  0.70362382     0.03400
C192        C  0.06369250  0.44590492  0.70183701    -0.19500
C193        C  0.04898159  0.46043718  0.68671317    -0.19700
C194        C  0.07581678  0.49327715  0.67984632     0.03300
H195        H  0.05093402  0.41866342  0.70769399     0.17100
H196        H  0.02275230  0.44661908  0.67880095     0.17100
N197        N  0.27788860  0.00636467  0.52337936     0.00800
C198        C  0.30742474  0.01447790  0.53672946     0.03400
C199        C  0.33017881  0.05033107  0.53609099    -0.19500
C200        C  0.31495792  0.06447069  0.52108413    -0.19700
C201        C  0.28326291  0.03688752  0.51301816     0.03300
H202        H  0.35719251  0.06404592  0.54250571     0.17100
H203        H  0.32801035  0.09107066  0.51382967     0.17100
N204        N  0.18040559  0.42879976  0.54263823     0.00800
C205        C  0.15102386  0.42113776  0.52936534     0.03400
C206        C  0.12753336  0.38545064  0.53028546    -0.19500
C207        C  0.14229621  0.37095395  0.54539734    -0.19700
C208        C  0.17441578  0.39820960  0.55315146     0.03300
H209        H  0.10050974  0.37219106  0.52388465     0.17100
H210        H  0.12887742  0.34441746  0.55277294     0.17100
N211        N  0.34825429  0.26145766  0.20867259     0.00800
C212        C  0.31845250  0.25450999  0.19622350     0.03400
C213        C  0.29397065  0.21914968  0.19801729    -0.19500
C214        C  0.30864424  0.20416990  0.21270508    -0.19700
C215        C  0.34165712  0.23082376  0.21946118     0.03300
H216        H  0.26656854  0.20664215  0.19258207     0.17100
H217        H  0.29470983  0.17798246  0.22067784     0.17100
N218        N  0.44628276  0.33863891  0.18989852     0.00800
C219        C  0.47615990  0.34652510  0.20265018     0.03400
C220        C  0.00011633  0.38208657  0.20055820    -0.19500
C221        C  0.48499052  0.39613020  0.18544055    -0.19700
C222        C  0.45234108  0.36886374  0.17868956     0.03300
H223        H  0.02747053  0.39526661  0.20618011     0.17100
H224        H  0.99853489  0.42225436  0.17720958     0.17100
N225        N  0.44088272  0.16604761  0.02284999     0.00800
C226        C  0.43330401  0.13595677  0.03513525     0.03400
C227        C  0.39787524  0.11185360  0.03306372    -0.19500
C228        C  0.38344417  0.12708300  0.01840213    -0.19700
C229        C  0.41051085  0.15998026  0.01187427     0.03300
H230        H  0.38492914  0.08440416  0.03840703     0.17100
H231        H  0.35731759  0.11359654  0.01029621     0.17100
N232        N  0.01758839  0.26336647  0.04361222     0.00800
C233        C  0.02598636  0.29317241  0.03055900     0.03400
C234        C  0.06169943  0.31632572  0.03206690    -0.19500
C235        C  0.07553033  0.30090127  0.04711339    -0.19700
C236        C  0.04784849  0.26884748  0.05449276     0.03300
H237        H  0.07537749  0.34354543  0.02611565     0.17100
H238        H  0.10183373  0.31397992  0.05492290     0.17100
N239        N  0.11055192  0.16933380  0.85504146     0.00800
C240        C  0.14028312  0.17731559  0.86805368     0.03400
C241        C  0.16353903  0.21303478  0.86694289    -0.19500
C242        C  0.14824585  0.22730486  0.85217741    -0.19700
C243        C  0.11610923  0.19988431  0.84467314     0.03300
H244        H  0.19068832  0.22651307  0.87305898     0.17100
H245        H  0.16132124  0.25383200  0.84478522     0.17100
N246        N  0.01283466  0.09291131  0.87492173     0.00800
C247        C  0.48329339  0.08542655  0.86186056     0.03400
C248        C  0.45910047  0.05000246  0.86366672    -0.19500
C249        C  0.47361287  0.03549004  0.87899577    -0.19700
C250        C  0.50629371  0.06244712  0.88604347     0.03300
H251        H  0.43191850  0.03710267  0.85764283     0.17100
H252        H  0.45983282  0.00927101  0.88691140     0.17100
O253        O  0.37222608  0.12900023  0.79903819    -0.75900
O254        O  0.20551614  0.04628957  0.88026310    -0.77400
O255        O  0.29210394  0.02471149  0.84982452    -0.74400
O256        O  0.25052646  0.07412304  0.79882772    -0.72800
O257        O  0.25016728  0.12610213  0.79969839    -0.74600
O258        O  0.32630419  0.04139747  0.88539844    -0.75500
O259        O  0.22218083  0.02906243  0.84456815    -0.76900
O260        O  0.32024619  0.07657177  0.79955413    -0.77200
Eu261      Eu  0.28380398  0.07404942  0.83606983     2.39200
O262        O  0.25455664  0.10355522  0.85081661    -0.84700
O263        O  0.34232156  0.10336266  0.85065432    -0.88300
C264        C  0.35021008  0.09878696  0.78969921     1.06400
C265        C  0.19951146  0.02508552  0.86159137     1.06200
C266        C  0.30778599  0.01881533  0.86824157     1.06200
C267        C  0.24238936  0.09626603  0.78962318     1.04000
H268        H  0.27088916  0.05015718  0.88677135     0.33800
O269        O  0.28345007  0.07395952  0.88059007    -0.97100
H270        H  0.31320073  0.13305129  0.80384646     0.33800
O271        O  0.31317634  0.13287888  0.82204138    -0.99600
O272        O  0.25553066  0.13669833  0.93304828    -0.76800
O273        O  0.42131534  0.21960013  0.84998558    -0.76400
O274        O  0.30909613  0.07074657  0.93291490    -0.74800
O275        O  0.22615456  0.15315076  0.85022007    -0.78100
O276        O  0.31710571  0.19704362  0.79961292    -0.76000
O277        O  0.39964649  0.11143378  0.88007355    -0.74600
O278        O  0.37604662  0.19048933  0.93276117    -0.76200
O279        O  0.33463395  0.23995963  0.88133494    -0.78100
O280        O  0.37619658  0.13839573  0.93189673    -0.74800
O281        O  0.29926139  0.22301784  0.84635651    -0.77500
O282        O  0.25659925  0.07013954  0.93223438    -0.73200
O283        O  0.41702028  0.14590760  0.84462493    -0.73300
O284        O  0.36897885  0.19645726  0.79978303    -0.72900
O285        O  0.20886775  0.11924472  0.88591740    -0.76400
O286        O  0.30776784  0.18887779  0.93238390    -0.75800
O287        O  0.40487261  0.23666222  0.88585247    -0.74200
Eu288      Eu  0.25442008  0.10343915  0.89526896     2.39800
Eu289      Eu  0.37188415  0.16222624  0.83610483     2.39600
Eu290      Eu  0.34233367  0.10269744  0.89507949     2.38400
Eu291      Eu  0.28393300  0.16218993  0.83643819     2.39900
Eu292      Eu  0.34335685  0.19123273  0.89540272     2.39800
O293        O  0.34283093  0.19145833  0.85098436    -0.88600
O294        O  0.31331018  0.13234736  0.90882153    -0.87500
C295        C  0.27792561  0.16681306  0.94244913     1.06600
C296        C  0.42740471  0.24091829  0.86858346     1.05300
C297        C  0.27898357  0.06287800  0.94236166     1.04700
C298        C  0.20466396  0.13756873  0.86867099     1.06700
C299        C  0.34720783  0.20498052  0.79015959     1.05600
C300        C  0.42100040  0.12708878  0.86154105     1.04500
C301        C  0.38398629  0.16822681  0.94197989     1.04500
C302        C  0.31835774  0.24565219  0.86327322     1.07100
H303        H  0.39581740  0.17247146  0.88675037     0.34500
O304        O  0.37200091  0.16129829  0.88059818    -1.00700
H305        H  0.27346304  0.17478069  0.88722456     0.36600
O306        O  0.28469798  0.16229723  0.88091357    -1.03300
O307        O  0.41773743  0.46127599  0.96603498    -0.75900
O308        O  0.00260244  0.37970717  0.04860020    -0.77400
O309        O  0.48516355  0.40934545  0.96519220    -0.74400
O310        O  0.39513778  0.35836633  0.01826268    -0.72800
O311        O  0.37756741  0.37524769  0.05368979    -0.74600
O312        O  0.03760870  0.46139297  0.96598801    -0.75500
O313        O  0.46859402  0.36233125  0.01296316    -0.76900
O314        O  0.41784966  0.40916238  0.96686529    -0.77200
Eu315      Eu  0.45225146  0.40742076  0.00335167     2.39200
O316        O  0.45241422  0.40787910  0.04776015    -0.84700
O317        O  0.48100358  0.46620376  0.98978196    -0.88300
C318        C  0.40984167  0.43107686  0.95684558     1.06400
C319        C  0.98696826  0.35817431  0.03015538     1.06200
C320        C  0.01522323  0.43182680  0.95573365     1.06200
C321        C  0.37369269  0.35253607  0.03674965     1.04000
H322        H  0.02382081  0.42677965  0.01141455     0.33800
O323        O  0.01120275  0.43789659  0.01769252    -0.97100
H324        H  0.39847965  0.42322871  0.01183224     0.33800
O325        O  0.42230670  0.43596695  0.01795592    -0.99600
O326        O  0.04444366  0.47083204  0.09947776    -0.76800
O327        O  0.45902548  0.05189273  0.01749900    -0.76400
O328        O  0.08913768  0.48862060  0.01791567    -0.74800
O329        O  0.42234492  0.40297470  0.09932787    -0.78100
O330        O  0.37284528  0.44442270  0.04850345    -0.76000
O331        O  0.03843520  0.02849643  0.96541420    -0.74600
O332        O  0.06761616  0.07430897  0.04866854    -0.76200
O333        O  0.47696279  0.52594026  0.09923529    -0.78100
O334        O  0.08473772  0.05824225  0.01264998    -0.74800
O335        O  0.42520030  0.47331821  0.09903496    -0.77500
O336        O  0.07243932  0.45392424  0.05323819    -0.73200
O337        O  0.48600268  0.02805086  0.96622174    -0.73300
O338        O  0.38924290  0.47851284  0.01290527    -0.72900
O339        O  0.47476418  0.40344749  0.09882050    -0.76400
O340        O  0.04450378  0.02304044  0.09881708    -0.75800
O341        O  0.49428879  0.07029278  0.05252962    -0.74200
Eu342      Eu  0.01099763  0.43740988  0.06222519     2.39800
Eu343      Eu  0.45070296  0.49467804  0.00328845     2.39600
Eu344      Eu  0.03991633  0.49656366  0.00319438     2.38400
Eu345      Eu  0.42248706  0.43672223  0.06243140     2.39900
Eu346      Eu  0.51018373  0.02504636  0.06224086     2.39800
O347        O  0.45133530  0.49508782  0.04769162    -0.88600
O348        O  0.03996996  0.49630022  0.04765567    -0.87500
C349        C  0.05255118  0.00109558  0.10876776     1.06600
C350        C  0.47513246  0.07379098  0.03562289     1.05300
C351        C  0.09511431  0.47299426  0.03632706     1.04700
C352        C  0.44466767  0.39520728  0.10865569     1.06700
C353        C  0.36669979  0.45988825  0.03007244     1.05600
C354        C  0.51579453  0.03592324  0.95604456     1.04500
C355        C  0.08892249  0.08054982  0.03006258     1.04500
C356        C  0.44697094  0.50356758  0.10874524     1.07100
H357        H  0.52038914  0.04847821  0.01147948     0.34500
O358        O  0.50935306  0.02472561  0.01774002    -1.00700
H359        H  0.48136698  0.46645886  0.09459546     0.36600
O360        O  0.48129090  0.46638762  0.07640061    -1.03300
O361        O  0.37738991  0.13839812  0.43273445    -0.75900
O362        O  0.29293668  0.22147593  0.35128975    -0.77400
O363        O  0.40092684  0.24323261  0.38196046    -0.74400
O364        O  0.30973388  0.19430088  0.43253063    -0.72800
O365        O  0.25742112  0.14221679  0.43176045    -0.74600
O366        O  0.41847553  0.22654174  0.34645021    -0.75500
O367        O  0.32735635  0.23901118  0.38677400    -0.76900
O368        O  0.37713644  0.19044639  0.43224290    -0.77200
Eu369      Eu  0.34341074  0.19379571  0.39569802     2.39200
O370        O  0.28464386  0.16427705  0.38085084    -0.84700
O371        O  0.37260657  0.16446014  0.38130737    -0.88300
C372        C  0.38529268  0.16850617  0.44207816     1.06400
C373        C  0.30857438  0.24292333  0.36979395     1.06200
C374        C  0.42246500  0.24922184  0.36352564     1.06200
C375        C  0.27941204  0.17217964  0.44170800     1.04000
H376        H  0.35417550  0.21741579  0.34491569     0.33800
O377        O  0.34290396  0.19364785  0.35116546    -0.97100
H378        H  0.31380426  0.13512942  0.42803214     0.33800
O379        O  0.31390202  0.13510089  0.40983707    -0.99600
O380        O  0.25243312  0.13050340  0.29865078    -0.76800
O381        O  0.33451527  0.04793255  0.38208496    -0.76400
O382        O  0.37193772  0.19667875  0.29903567    -0.74800
O383        O  0.20615033  0.11401899  0.38118199    -0.78100
O384        O  0.25487056  0.07240759  0.43290771    -0.76000
O385        O  0.42159124  0.15602642  0.35167532    -0.74600
O386        O  0.31937402  0.07754543  0.29922592    -0.76200
O387        O  0.22783803  0.02745494  0.35129090    -0.78100
O388        O  0.37173626  0.12958634  0.30016260    -0.74800
O389        O  0.21027805  0.04429079  0.38674381    -0.77500
O390        O  0.32004087  0.19727144  0.29953255    -0.73200
O391        O  0.40417602  0.12075524  0.38669754    -0.73300
O392        O  0.30670092  0.07175101  0.43250092    -0.72900
O393        O  0.22279033  0.14786543  0.34544541    -0.76400
O394        O  0.25219735  0.07819706  0.29950268    -0.75800
O395        O  0.30108356  0.03078616  0.34615869    -0.74200
Eu396      Eu  0.28434493  0.16407358  0.33642206     2.39800
Eu397      Eu  0.34313186  0.10553129  0.39584238     2.39600
Eu398      Eu  0.37311467  0.16497001  0.33691605     2.38400
Eu399      Eu  0.25529643  0.10574205  0.39543383     2.39900
Eu400      Eu  0.28530020  0.07622242  0.33661505     2.39800
O401        O  0.28473732  0.07627168  0.38105826    -0.88600
O402        O  0.31432301  0.13510364  0.32318885    -0.87500
C403        C  0.24472932  0.10038402  0.28930791     1.06600
C404        C  0.31926354  0.02658272  0.36350771     1.05300
C405        C  0.34978169  0.20459718  0.28954656     1.04700
C406        C  0.20019577  0.12943689  0.36262412     1.06700
C407        C  0.27682002  0.06418160  0.44240447     1.05600
C408        C  0.42705653  0.13974388  0.36987149     1.04500
C409        C  0.34968108  0.09981955  0.29002171     1.04500
C410        C  0.20641136  0.02159047  0.36979324     1.07100
H411        H  0.35652956  0.09509018  0.34526117     0.34500
O412        O  0.34395039  0.10631951  0.35139175    -1.00700
H413        H  0.23193527  0.09266007  0.34464148     0.36600
O414        O  0.25568176  0.10526788  0.35093607    -1.03300
O415        O  0.23365630  0.40794814  0.71517130    -0.75900
O416        O  0.15080795  0.24218408  0.63229560    -0.77400
O417        O  0.25413748  0.32138633  0.68439351    -0.74400
O418        O  0.20455849  0.36319033  0.63255703    -0.72800
O419        O  0.15245705  0.36336568  0.63333254    -0.74600
O420        O  0.23737688  0.28750807  0.72014399    -0.75500
O421        O  0.20302196  0.29439862  0.63292234    -0.76900
O422        O  0.25111904  0.39128677  0.67959291    -0.77200
Eu423      Eu  0.20545725  0.33013126  0.66984971     2.39200
O424        O  0.14663799  0.30031232  0.65626959    -0.84700
O425        O  0.20515609  0.32950453  0.71429094    -0.88300
C426        C  0.25522118  0.41385510  0.69675800     1.06400
C427        C  0.18089076  0.26452585  0.62291974     1.06200
C428        C  0.26001468  0.30609815  0.70307358     1.06200
C429        C  0.18228893  0.37113592  0.62327435     1.04000
H430        H  0.18913158  0.26041610  0.67815140     0.33800
O431        O  0.17651977  0.27155128  0.68439870    -0.97100
H432        H  0.18673201  0.38264178  0.67844712     0.33800
O433        O  0.17548876  0.35881850  0.68458564    -0.99600
O434        O  0.06031100  0.19285244  0.68453614    -0.76800
O435        O  0.14346349  0.35924862  0.76649449    -0.76400
O436        O  0.16824988  0.21351203  0.71471757    -0.74800
O437        O  0.08510876  0.29607781  0.63225282    -0.78100
O438        O  0.12518767  0.38650184  0.68501315    -0.76000
O439        O  0.20970933  0.30412916  0.76591992    -0.74600
O440        O  0.08619093  0.23616941  0.76578500    -0.76200
O441        O  0.03884570  0.27961297  0.71535555    -0.78100
O442        O  0.13853925  0.23650372  0.76524636    -0.74800
O443        O  0.05542483  0.31317648  0.67949438    -0.77500
O444        O  0.13413617  0.19615997  0.67911606    -0.73200
O445        O  0.21003644  0.35646003  0.76558328    -0.73300
O446        O  0.15955415  0.40380452  0.72049469    -0.72900
O447        O  0.08451008  0.24359548  0.63290185    -0.76400
O448        O  0.04195150  0.20994227  0.71945320    -0.75800
O449        O  0.09096374  0.30738519  0.76569328    -0.74200
Eu450      Eu  0.11775646  0.24142827  0.66988234     2.39800
Eu451      Eu  0.17602718  0.35875039  0.72906009     2.39600
Eu452      Eu  0.17583546  0.27067174  0.72889722     2.38400
Eu453      Eu  0.11689238  0.32932705  0.67007766     2.39900
Eu454      Eu  0.08779739  0.27081258  0.72895051     2.39800
O455        O  0.11709277  0.32940391  0.71453209    -0.88600
O456        O  0.11736869  0.24153369  0.71427968    -0.87500
C457        C  0.03839172  0.18719568  0.70263923     1.06600
C458        C  0.11318458  0.33720704  0.77575144     1.05300
C459        C  0.15280518  0.19210993  0.69617966     1.04700
C460        C  0.07717053  0.26594806  0.62282737     1.06700
C461        C  0.14076878  0.40783040  0.70356964     1.05600
C462        C  0.21793246  0.33431503  0.77533272     1.04500
C463        C  0.10838573  0.22817276  0.77507065     1.04500
C464        C  0.03289753  0.29498860  0.69678648     1.07100
H465        H  0.14652557  0.29981292  0.76128411     0.34500
O466        O  0.14652050  0.29994191  0.74309021    -1.00700
H467        H  0.06447092  0.25798084  0.67818061     0.36600
O468        O  0.08822900  0.27047239  0.68445476    -1.03300
O469        O  0.20815111  0.29702817  0.13377461    -0.75900
O470        O  0.04056497  0.21463741  0.21570845    -0.77400
O471        O  0.12640805  0.19256391  0.18482722    -0.74400
O472        O  0.08399890  0.24131894  0.13405097    -0.72800
O473        O  0.08384896  0.29341070  0.13437090    -0.74600
O474        O  0.16093010  0.20937130  0.22022531    -0.75500
O475        O  0.05731624  0.19720038  0.18013431    -0.76900
O476        O  0.15561638  0.24516130  0.13431548    -0.77200
Eu477      Eu  0.11858551  0.24204787  0.17081318     2.39200
O478        O  0.08950005  0.27169251  0.18549008    -0.84700
O479        O  0.17713330  0.27137299  0.18527803    -0.88300
C480        C  0.18580180  0.26689617  0.12447589     1.06400
C481        C  0.03472732  0.19324037  0.19719928     1.06200
C482        C  0.14210312  0.18664432  0.20320944     1.06200
C483        C  0.07565593  0.26324454  0.12470233     1.04000
H484        H  0.10565789  0.21863675  0.22161202     0.33800
O485        O  0.11823786  0.24238259  0.21532503    -0.97100
H486        H  0.14770183  0.30035389  0.13828674     0.33800
O487        O  0.14787527  0.30059119  0.15648102    -0.99600
O488        O  0.09071959  0.30605435  0.26729227    -0.76800
O489        O  0.25592469  0.38766604  0.18435714    -0.76400
O490        O  0.14406387  0.23859818  0.26737143    -0.74800
O491        O  0.06110705  0.32165023  0.18446720    -0.78100
O492        O  0.15108778  0.36260933  0.13283187    -0.76000
O493        O  0.23446553  0.27983255  0.21489501    -0.74600
O494        O  0.20985122  0.35808592  0.26737587    -0.76200
O495        O  0.16984436  0.40879460  0.21435729    -0.78100
O496        O  0.21057308  0.30626488  0.26663998    -0.74800
O497        O  0.13548875  0.39177143  0.17885894    -0.77500
O498        O  0.09213414  0.23911146  0.26693295    -0.73200
O499        O  0.25254419  0.31524316  0.17993381    -0.73300
O500        O  0.20366275  0.36344881  0.13351036    -0.72900
O501        O  0.04397623  0.28790579  0.22025878    -0.76400
O502        O  0.14289730  0.35829447  0.26647003    -0.75800
O503        O  0.23967132  0.40477259  0.22029307    -0.74200
Eu504      Eu  0.08946177  0.27215354  0.22992111     2.39800
Eu505      Eu  0.20668118  0.33021657  0.17050724     2.39600
Eu506      Eu  0.17707309  0.27091349  0.22968857     2.38400
Eu507      Eu  0.11863532  0.33005411  0.17056126     2.39900
Eu508      Eu  0.17806749  0.35982767  0.22951193     2.39800
O509        O  0.17760973  0.35965585  0.18502059    -0.88600
O510        O  0.14834118  0.30104234  0.24327584    -0.87500
C511        C  0.11309774  0.33622570  0.27657990     1.06600
C512        C  0.26211163  0.40892373  0.20300452     1.05300
C513        C  0.11412166  0.23113981  0.27686877     1.04700
C514        C  0.03972068  0.30616771  0.20299975     1.06700
C515        C  0.18127171  0.37078954  0.12341672     1.05600
C516        C  0.25628459  0.29615446  0.19674183     1.04500
C517        C  0.21784580  0.33589945  0.27678100     1.04500
C518        C  0.15438509  0.41462476  0.19573800     1.07100
H519        H  0.23023376  0.34066472  0.22123796     0.34500
O520        O  0.20645725  0.32946351  0.21500923    -1.00700
H521        H  0.10824563  0.34343861  0.22125265     0.36600
O522        O  0.11940647  0.33080952  0.21508343    -1.03300
O523        O  0.42279523  0.47275562  0.60034730    -0.75900
O524        O  0.08890406  0.05539091  0.51808614    -0.77400
O525        O  0.04236080  0.02603741  0.60080047    -0.74400
O526        O  0.00216117  0.07625925  0.54800050    -0.72800
O527        O  0.46775047  0.05936437  0.51253471    -0.74600
O528        O  0.04236953  0.47382166  0.59987526    -0.75500
O529        O  0.07220705  0.07282645  0.55366146    -0.76900
O530        O  0.47490618  0.02500250  0.59986754    -0.77200
Eu531      Eu  0.01064447  0.02749531  0.56297295     2.39200
O532        O  0.01037406  0.02716712  0.51858164    -0.84700
O533        O  0.48053050  0.46855874  0.57632631    -0.88300
C534        C  0.44509911  0.00268903  0.60984958     1.06400
C535        C  0.09484763  0.07688387  0.53655311     1.06200
C536        C  0.04994423  0.50349683  0.61009266     1.06200
C537        C  0.98651839  0.08204125  0.52949684     1.04000
H538        H  0.06282435  0.50818943  0.55495193     0.33800
O539        O  0.03908792  0.49707577  0.54863727    -0.97100
H540        H  0.44095794  0.01129936  0.55448175     0.33800
O541        O  0.45212076  0.99869148  0.54827934    -0.99600
O542        O  0.03993922  0.46441570  0.46698771    -0.76800
O543        O  0.37306688  0.38258378  0.54798754    -0.76400
O544        O  0.06656145  0.44673550  0.54851294    -0.74800
O545        O  0.98527169  0.03202152  0.46687799    -0.78100
O546        O  0.39405478  0.99022123  0.51762955    -0.76000
O547        O  0.47540593  0.40581126  0.60031702    -0.74600
O548        O  0.45963941  0.36073429  0.51728679    -0.76200
O549        O  0.41783676  0.40900656  0.46668046    -0.78100
O550        O  0.49300252  0.37693921  0.55323232    -0.74800
O551        O  0.41815258  0.46133306  0.46710239    -0.77500
O552        O  0.08452454  0.48144932  0.51320264    -0.73200
O553        O  0.42341510  0.40619331  0.59951263    -0.73300
O554        O  0.37654724  0.45631611  0.55329787    -0.72900
O555        O  0.03721852  0.03155483  0.46751404    -0.76400
O556        O  0.48789341  0.41209574  0.46740218    -0.75800
O557        O  0.39020637  0.36435280  0.51304573    -0.74200
Eu558      Eu  0.03958693  0.49780871  0.50415970     2.36200
Eu559      Eu  0.42175290  0.43987135  0.56262239     2.39600
Eu560      Eu  0.50921903  0.43837694  0.56290248     2.38400
Eu561      Eu  0.45157478  0.99810144  0.50378123     2.39900
Eu562      Eu  0.45141443  0.40996674  0.50381845     2.39800
O563        O  0.42210130  0.43960412  0.51823085    -0.88600
O564        O  0.50987934  0.43888695  0.51850385    -0.87500
C565        C  0.51790201  0.43420956  0.45755560     1.06600
C566        C  0.36740133  0.36071213  0.52986193     1.05300
C567        C  0.08816622  0.46244379  0.53012851     1.04700
C568        C  0.01540721  0.03978276  0.45760178     1.06700
C569        C  0.37253936  0.97487212  0.53614176     1.05600
C570        C  0.44530984  0.39824304  0.60961701     1.04500
C571        C  0.47482669  0.35456749  0.53585398     1.04500
C572        C  0.41010100  0.43128307  0.45725412     1.07100
H573        H  0.43784891  0.38619254  0.55441187     0.34500
O574        O  0.45053186  0.40999908  0.54824943    -1.00700
H575        H  0.48113083  0.46878034  0.47160501     0.36600
O576        O  0.48098165  0.46875398  0.48979798    -1.03300
C577        C  0.52095551  0.06046999  0.90999255    -0.09000
C578        C  0.52291952  0.05227288  0.93147515    -0.10600
C579        C  0.47037761  0.10970744  0.85860068    -0.09000
C580        C  0.45059714  0.12143058  0.85907533    -0.10600
C581        C  0.10044640  0.21086996  0.79927236    -0.09000
C582        C  0.10178758  0.20213210  0.82068766    -0.10600
C583        C  0.15432989  0.15387087  0.87095527    -0.09000
C584        C  0.17470812  0.14281729  0.87066544    -0.10600
C585        C  0.07656696  0.14183073  0.86163446    -0.09000
C586        C  0.04705543  0.11985051  0.86823475    -0.10600
C587        C  0.05813357  0.25485231  0.10056780    -0.09000
C588        C  0.04944943  0.25535077  0.07898826    -0.10600
C589        C  0.00282252  0.30751768  0.02758642    -0.09000
C590        C  0.99209444  0.32815014  0.02805985    -0.10600
C591        C  0.46948896  0.10340712  0.03766236    -0.09000
C592        C  0.45762211  0.12305323  0.03807090    -0.10600
C593        C  0.40075313  0.17590316  0.96632975    -0.09000
C594        C  0.40894076  0.17456403  0.98787949    -0.10600
C595        C  0.46807594  0.20004861  0.02983854    -0.09000
C596        C  0.49017675  0.22943224  0.03667297    -0.10600
C597        C  0.98967352  0.32273724  0.20570117    -0.09000
C598        C  0.00986170  0.31149180  0.20517685    -0.10600
C599        C  0.43797669  0.37023656  0.15455448    -0.09000
C600        C  0.43683804  0.37837174  0.13296224    -0.10600
C601        C  0.35745836  0.22081930  0.26501311    -0.09000
C602        C  0.35604654  0.22879178  0.24342014    -0.10600
C603        C  0.30585087  0.27911852  0.19370382    -0.09000
C604        C  0.28609294  0.29083996  0.19447163    -0.10600
C605        C  0.41217240  0.31117603  0.19637959    -0.09000
C606        C  0.38252501  0.28893435  0.20257784    -0.10600
C607        C  0.18983979  0.38779076  0.59884593    -0.09000
C608        C  0.18836597  0.39600720  0.57730546    -0.10600
C609        C  0.13736070  0.44486935  0.52684846    -0.09000
C610        C  0.11758250  0.45654886  0.52772320    -0.10600
C611        C  0.26986445  0.03916080  0.48855934    -0.09000
C612        C  0.26890737  0.04757333  0.46693443    -0.10600
C613        C  0.34280477  0.98061578  0.53834768    -0.09000
C614        C  0.32227809  0.99155099  0.53903747    -0.10600
C615        C  0.24392049  0.47871645  0.52989746    -0.09000
C616        C  0.21448702  0.45633399  0.53632470    -0.10600
C617        C  0.13514361  0.43748152  0.70603433    -0.09000
C618        C  0.12350809  0.45734922  0.70661038    -0.10600
C619        C  0.07384705  0.50829300  0.65614382    -0.09000
C620        C  0.06602436  0.51053570  0.63466094    -0.10600
C621        C  0.16949758  0.14198411  0.69318979    -0.09000
C622        C  0.15849916  0.16242086  0.69385979    -0.10600
C623        C  0.21695583  0.08954046  0.74371324    -0.09000
C624        C  0.22552988  0.08856014  0.76525227    -0.10600
C625        C  0.13394983  0.03415519  0.69671360    -0.09000
C626        C  0.15639654  0.06376249  0.70275772    -0.10600
C627        C  0.32482747  0.99686912  0.36141979    -0.09000
C628        C  0.33623977  0.97681009  0.36102925    -0.10600
C629        C  0.38510549  0.42499130  0.41139635    -0.09000
C630        C  0.39344849  0.42350495  0.43287441    -0.10600
C631        C  0.29154338  0.29256067  0.37345523    -0.09000
C632        C  0.30292040  0.27252299  0.37228489    -0.10600
C633        C  0.24212651  0.34231013  0.32308273    -0.09000
C634        C  0.23404829  0.34336604  0.30140720    -0.10600
C635        C  0.30254968  0.36989976  0.36438365    -0.09000
C636        C  0.32476621  0.39948486  0.37067283    -0.10600
C637        C  0.42831913  0.51052922  0.15459762    -0.09000
C638        C  0.43785840  0.51150113  0.13305604    -0.10600
C639        C  0.29749873  0.43853822  0.20519585    -0.09000
C640        C  0.32896079  0.45882443  0.20571305    -0.10600
C641        C  0.36876174  0.09355528  0.24411283    -0.09000
C642        C  0.35900511  0.09232326  0.26562860    -0.10600
C643        C  0.46810782  0.14359751  0.19363997    -0.09000
C644        C  0.99953339  0.16363325  0.19477070    -0.10600
C645        C  0.40177963  0.06626138  0.20262054    -0.09000
C646        C  0.39441391  0.03676984  0.19605416    -0.10600
C647        C  0.49366372  0.15644066  0.37253295    -0.09000
C648        C  0.46216079  0.14487006  0.37206902    -0.10600
C649        C  0.10513557  0.21461650  0.30131554    -0.09000
C650        C  0.09500643  0.20638454  0.32275454    -0.10600
C651        C  0.03422485  0.06500309  0.41176559    -0.09000
C652        C  0.02464180  0.05668270  0.43329922    -0.10600
C653        C  0.13343506  0.11260146  0.36015859    -0.09000
C654        C  0.16491563  0.12393481  0.36043273    -0.10600
C655        C  0.06778679  0.12428814  0.36999751    -0.09000
C656        C  0.06048519  0.14655812  0.36370113    -0.10600
C657        C  0.29981289  0.44331495  0.02737821    -0.09000
C658        C  0.33127631  0.45425525  0.02798665    -0.10600
C659        C  0.18988159  0.38717423  0.09882136    -0.09000
C660        C  0.19913922  0.39556996  0.07718745    -0.10600
C661        C  0.26130946  0.03923530  0.98874595    -0.09000
C662        C  0.27041086  0.04695464  0.96704848    -0.10600
C663        C  0.13051932  0.47898006  0.03872066    -0.09000
C664        C  0.16201478  0.49060598  0.03954445    -0.10600
C665        C  0.23443982  0.45632232  0.03611531    -0.09000
C666        C  0.22755448  0.47886505  0.02979595    -0.10600
C667        C  0.18977551  0.25691018  0.59849964    -0.09000
C668        C  0.19947247  0.25852205  0.57698274    -0.10600
C669        C  0.33214438  0.33091079  0.52777471    -0.09000
C670        C  0.30062025  0.31100598  0.52739060    -0.10600
C671        C  0.13018940  0.10661911  0.53878781    -0.09000
C672        C  0.16168748  0.12674454  0.53918774    -0.10600
C673        C  0.27022032  0.17994154  0.46600249    -0.09000
C674        C  0.26074215  0.17867607  0.48757376    -0.10600
C675        C  0.22715069  0.20428052  0.52943305    -0.09000
C676        C  0.23433951  0.23373421  0.53590844    -0.10600
C677        C  0.36632420  0.23123950  0.74454139    -0.09000
C678        C  0.35651017  0.22246039  0.76600536    -0.10600
C679        C  0.46625158  0.27879454  0.69402966    -0.09000
C680        C  0.99766255  0.28966965  0.69465882    -0.10600
C681        C  0.29533281  0.31205297  0.70564080    -0.09000
C682        C  0.32682991  0.32389110  0.70650047    -0.10600
C683        C  0.42632824  0.37357889  0.65562408    -0.09000
C684        C  0.43610489  0.38176036  0.63409449    -0.10600
C685        C  0.39333666  0.31364091  0.69702023    -0.09000
C686        C  0.40081892  0.29156534  0.70344558    -0.10600
C687        C  0.13248665  0.47619105  0.85836985    -0.09000
C688        C  0.16404094  0.99577230  0.85906670    -0.10600
C689        C  0.03299824  0.42627616  0.90928873    -0.09000
C690        C  0.02377877  0.42474862  0.93096425    -0.10600
C691        C  0.46278035  0.27072207  0.87075938    -0.09000
C692        C  0.49421497  0.29128983  0.87150227    -0.10600
C693        C  0.10416969  0.34504249  0.80012225    -0.09000
C694        C  0.09461421  0.34417416  0.82164443    -0.10600
C695        C  0.05943463  0.36984101  0.86240609    -0.09000
C696        C  0.06648157  0.39939625  0.86847776    -0.10600
C697        C  0.22867718  0.09147862  0.26469010    -0.09000
C698        C  0.22083205  0.08172905  0.24313165    -0.10600
C699        C  0.16027478  0.45003058  0.19313854    -0.09000
C700        C  0.17183992  0.48155241  0.19243724    -0.10600
C701        C  0.06968290  0.01032590  0.13308853    -0.09000
C702        C  0.07838201  0.02003172  0.15460544    -0.10600
C703        C  0.12540768  0.11979726  0.20577225    -0.09000
C704        C  0.13649106  0.15126853  0.20539034    -0.10600
C705        C  0.16071990  0.04758489  0.20232374    -0.09000
C706        C  0.13830834  0.05469693  0.19610844    -0.10600
C707        C  0.15718520  0.45471040  0.37308098    -0.09000
C708        C  0.17694247  0.48621764  0.37225981    -0.10600
C709        C  0.10562185  0.34528200  0.30102811    -0.09000
C710        C  0.10695037  0.35488202  0.32256757    -0.10600
C711        C  0.02511591  0.41582775  0.41161380    -0.09000
C712        C  0.52590646  0.42524679  0.43317240    -0.10600
C713        C  0.47253447  0.31615551  0.36075239    -0.09000
C714        C  0.45216884  0.28466487  0.36129991    -0.10600
C715        C  0.05079207  0.38128911  0.37009519    -0.09000
C716        C  0.08023486  0.38843866  0.36362402    -0.10600
C717        C  0.13909465  0.14726970  0.02803229    -0.09000
C718        C  0.11870989  0.11583954  0.02815802    -0.10600
C719        C  0.19218728  0.24752220  0.07879226    -0.09000
C720        C  0.19360530  0.25752499  0.10023795    -0.10600
C721        C  0.27206168  0.18618092  0.98835573    -0.09000
C722        C  0.27043096  0.17602150  0.96690492    -0.10600
C723        C  0.32378490  0.28587427  0.03965519    -0.09000
C724        C  0.34398536  0.31730646  0.03910525    -0.10600
C725        C  0.24642698  0.21990450  0.03037857    -0.09000
C726        C  0.21705773  0.21271453  0.03718012    -0.10600
C727        C  0.05268391  0.24801909  0.57666258    -0.09000
C728        C  0.06085694  0.25724459  0.59828392    -0.10600
C729        C  0.99210547  0.11723177  0.52705076    -0.09000
C730        C  0.00353445  0.14865282  0.52613123    -0.10600
C731        C  0.45814494  0.28780410  0.53815000    -0.09000
C732        C  0.46927778  0.31925644  0.53783377    -0.10600
C733        C  0.40217457  0.17751529  0.46639020    -0.09000
C734        C  0.41049324  0.18722170  0.48789493    -0.10600
C735        C  0.47058805  0.22230185  0.52880046    -0.09000
C736        C  0.49276609  0.21494364  0.53519115    -0.10600
C737        C  0.32375623  0.28079418  0.86124505    -0.09000
C738        C  0.33557969  0.31228725  0.86073488    -0.10600
C739        C  0.38493922  0.41231475  0.91099938    -0.09000
C740        C  0.39300153  0.42187709  0.93254439    -0.10600
C741        C  0.23500372  0.34313925  0.79959760    -0.09000
C742        C  0.24354357  0.35226688  0.82118372    -0.10600
C743        C  0.29153562  0.45220196  0.87122685    -0.09000
C744        C  0.30249033  0.48360280  0.87042602    -0.10600
C745        C  0.32559717  0.37892713  0.86938806    -0.09000
C746        C  0.30344565  0.38623320  0.86279536    -0.10600
C747        C  0.00876614  0.15195052  0.70488958    -0.09000
C748        C  0.98921831  0.12042800  0.70575058    -0.10600
C749        C  0.43910470  0.02017753  0.65611198    -0.09000
C750        C  0.43760005  0.01112439  0.63444055    -0.10600
C751        C  0.28508949  0.44910584  0.69456176    -0.09000
C752        C  0.30531971  0.48056307  0.69380686    -0.10600
C753        C  0.35723580  0.08083811  0.74376594    -0.09000
C754        C  0.35822410  0.09004825  0.76535933    -0.10600
C755        C  0.41259353  0.05385119  0.69669120    -0.09000
C756        C  0.38295686  0.04661440  0.70269901    -0.10600
N757        N  0.34890554  0.54026043  0.70897145     0.00800
C758        C  0.31899468  0.51803238  0.69633591     0.03400
C759        C  0.29532738  0.52994171  0.69789431    -0.19500
C760        C  0.31058934  0.55959097  0.71257968    -0.19700
C761        C  0.34310165  0.56489460  0.71963221     0.03300
H762        H  0.26798962  0.01576998  0.69225899     0.17100
H763        H  0.29724641  0.57253685  0.72037187     0.17100
N764        N  0.44682180  0.56043008  0.69084759     0.00800
C765        C  0.47653287  0.58316922  0.70340624     0.03400
C766        C  0.00077656  0.57202109  0.70189701    -0.19500
C767        C  0.48612394  0.54238043  0.68716141    -0.19700
C768        C  0.45328356  0.53628459  0.68016917     0.03300
H769        H  0.02811876  0.58674710  0.70750529     0.17100
H770        H  0.99989654  0.52990783  0.67940779     0.17100
N771        N  0.27594197  0.89269421  0.85607968     0.00800
C772        C  0.26804584  0.91466075  0.86883004     0.03400
C773        C  0.23237270  0.90236293  0.86749237    -0.19500
C774        C  0.21808479  0.87271082  0.85283232    -0.19700
C775        C  0.24545801  0.86782474  0.84553371     0.03300
H776        H  0.21901555  0.91628772  0.87324396     0.17100
H777        H  0.19170166  0.85953938  0.84516128     0.17100
N778        N  0.35282151  0.87205310  0.87601639     0.00800
C779        C  0.36010374  0.84945038  0.86360851     0.03400
C780        C  0.39546986  0.86049776  0.86562060    -0.19500
C781        C  0.41014992  0.89008247  0.88037355    -0.19700
C782        C  0.38327931  0.89614454  0.88699177     0.03300
H783        H  0.40817543  0.84580546  0.86020815     0.17100
H784        H  0.43628319  0.90249941  0.88845410     0.17100
N785        N  0.44292136  0.72861661  0.52230928     0.00800
C786        C  0.43478974  0.75020884  0.53534765     0.03400
C787        C  0.39901641  0.73748625  0.53427969    -0.19500
C788        C  0.38488957  0.70797858  0.51945297    -0.19700
C789        C  0.41244807  0.70354008  0.51192065     0.03300
H790        H  0.38539180  0.75095777  0.54046475     0.17100
H791        H  0.35835165  0.69436733  0.51207439     0.17100
N792        N  0.02007081  0.70808950  0.54159266     0.00800
C793        C  0.02753068  0.68605590  0.52855073     0.03400
C794        C  0.06310119  0.69781007  0.52982143    -0.19500
C795        C  0.07773297  0.72716246  0.54481239    -0.19700
C796        C  0.05066377  0.73244057  0.55229040     0.03300
H797        H  0.07609314  0.68361797  0.52384341     0.17100
H798        H  0.10410050  0.73986601  0.55249125     0.17100
N799        N  0.28044785  0.72674166  0.02354963     0.00800
C800        C  0.31017252  0.74854404  0.03654531     0.03400
C801        C  0.33399262  0.73687387  0.03471092    -0.19500
C802        C  0.31914368  0.70790373  0.01936027    -0.19700
C803        C  0.28660064  0.70258750  0.01236020     0.03300
H804        H  0.36122143  0.75090790  0.04065040     0.17100
H805        H  0.33267598  0.69528667  0.01134600     0.17100
N806        N  0.18312268  0.70631154  0.04407610     0.00800
C807        C  0.15322657  0.68473289  0.03115480     0.03400
C808        C  0.13003622  0.69722149  0.03258910    -0.19500
C809        C  0.14549157  0.72659972  0.04751964    -0.19700
C810        C  0.17767141  0.73119676  0.05477588     0.03300
H811        H  0.10284612  0.68365637  0.02656053     0.17100
H812        H  0.13251759  0.73999847  0.05515834     0.17100
N813        N  0.01690959  0.87515268  0.37666924     0.00800
C814        C  0.48726726  0.85386158  0.36337214     0.03400
C815        C  0.46457211  0.86699988  0.36418823    -0.19500
C816        C  0.48001729  0.89638246  0.37915951    -0.19700
C817        C  0.01170654  0.90035751  0.38710116     0.03300
H818        H  0.43752295  0.85377914  0.35785396     0.17100
H819        H  0.46712051  0.91001812  0.38650154     0.17100
N820        N  0.11443049  0.89538973  0.35730742     0.00800
C821        C  0.14376867  0.91735673  0.37055681     0.03400
C822        C  0.16753502  0.90553195  0.36957932    -0.19500
C823        C  0.15301933  0.87629335  0.35445478    -0.19700
C824        C  0.12074840  0.87104009  0.34675459     0.03300
H825        H  0.19457775  0.91957106  0.37592665     0.17100
H826        H  0.16668886  0.86348455  0.34701387     0.17100
N827        N  0.11052908  0.56079075  0.18964662     0.00800
C828        C  0.10220813  0.58221655  0.20274895     0.03400
C829        C  0.06646354  0.56951954  0.20135304    -0.19500
C830        C  0.05258976  0.54024739  0.18628945    -0.19700
C831        C  0.08022488  0.53587394  0.17886849     0.03300
H832        H  0.05275708  0.58296777  0.20740398     0.17100
H833        H  0.02622854  0.52689631  0.17858908     0.17100
N834        N  0.18828127  0.54094401  0.20838883     0.00800
C835        C  0.19579688  0.51898116  0.19526030     0.03400
C836        C  0.23139262  0.53080187  0.19661548    -0.19500
C837        C  0.24593311  0.55999976  0.21179339    -0.19700
C838        C  0.21882155  0.56527361  0.21915330     0.03300
H839        H  0.24447365  0.01679372  0.19047304     0.17100
H840        H  0.27231826  0.57280777  0.21944814     0.17100
N841        N  0.05341860  0.83595703  0.85612664     0.00800
C842        C  0.03199429  0.80635606  0.86939815     0.03400
C843        C  0.04532272  0.78380326  0.86895383    -0.19500
C844        C  0.07491457  0.79927121  0.85419780    -0.19700
C845        C  0.07883073  0.83082582  0.84603418     0.03300
H846        H  0.03210710  0.75678233  0.87534199     0.17100
H847        H  0.08876855  0.78645310  0.84712660     0.17100
N848        N  0.07308871  0.93365678  0.87434287     0.00800
C849        C  0.09510989  0.96299659  0.86110802     0.03400
C850        C  0.08338428  0.98684478  0.86222033    -0.19500
C851        C  0.05414218  0.97232780  0.87736977    -0.19700
C852        C  0.04883080  0.94001179  0.88501748     0.03300
H853        H  0.09750653  0.51389026  0.85593680     0.17100
H854        H  0.04144307  0.98605188  0.88490932     0.17100
N855        N  0.38611680  0.84070634  0.69058065     0.00800
C856        C  0.36415939  0.84804933  0.70383526     0.03400
C857        C  0.37576482  0.88359463  0.70263463    -0.19500
C858        C  0.40488381  0.89832144  0.68739414    -0.19700
C859        C  0.41022934  0.87133801  0.67979863     0.03300
H860        H  0.36163437  0.89651299  0.70891900     0.17100
H861        H  0.41754138  0.92474395  0.67982626     0.17100
N862        N  0.40728635  0.76403108  0.70989398     0.00800
C863        C  0.42857120  0.75588596  0.69645498     0.03400
C864        C  0.41554521  0.72004423  0.69713442    -0.19500
C865        C  0.38632949  0.70591556  0.71226407    -0.19700
C866        C  0.38224856  0.73350666  0.72027797     0.03300
H867        H  0.42880681  0.70635298  0.69063348     0.17100
H868        H  0.37278123  0.67932421  0.71953768     0.17100
N869        N  0.22062714  0.67028213  0.52286055     0.00800
C870        C  0.19908951  0.64057636  0.53594990     0.03400
C871        C  0.21127859  0.61714753  0.53427892    -0.19500
C872        C  0.24039676  0.63232675  0.51905310    -0.19700
C873        C  0.24511618  0.66455559  0.51182825     0.03300
H874        H  0.19758556  0.58995804  0.54029681     0.17100
H875        H  0.25340695  0.61910257  0.51116955     0.17100
N876        N  0.24071691  0.76768283  0.54247184     0.00800
C877        C  0.26327722  0.79783020  0.53023388     0.03400
C878        C  0.25174420  0.82175874  0.53218366    -0.19500
C879        C  0.22192956  0.80636711  0.54670012    -0.19700
C880        C  0.21614904  0.77350624  0.55321933     0.03300
H881        H  0.26617832  0.84921084  0.52684474     0.17100
H882        H  0.20908261  0.81969652  0.55468463     0.17100
N883        N  0.22114834  0.50656152  0.02369751     0.00800
C884        C  0.19952120  0.01430552  0.03703839     0.03400
C885        C  0.21186777  0.54996536  0.03620740    -0.19500
C886        C  0.24110799  0.56444658  0.02106195    -0.19700
C887        C  0.24576520  0.53713949  0.01314901     0.03300
H888        H  0.19818290  0.56326756  0.04264336     0.17100
H889        H  0.25423228  0.59098990  0.01369501     0.17100
N890        N  0.24038540  0.92848656  0.04267633     0.00800
C891        C  0.26203189  0.92034256  0.02968634     0.03400
C892        C  0.24885126  0.88448564  0.03034558    -0.19500
C893        C  0.21906158  0.87032581  0.04489858    -0.19700
C894        C  0.21491888  0.89793146  0.05280874     0.03300
H895        H  0.26220584  0.87073858  0.02417454     0.17100
H896        H  0.20522540  0.84367764  0.05205633     0.17100
N897        N  0.07432522  0.59673807  0.37644266     0.00800
C898        C  0.09613597  0.58875573  0.36355560     0.03400
C899        C  0.08440720  0.55324619  0.36557454    -0.19500
C900        C  0.05527676  0.53917735  0.38077136    -0.19700
C901        C  0.05008746  0.56650071  0.38764450     0.03300
H902        H  0.09841713  0.53998399  0.35980086     0.17100
H903        H  0.04256832  0.51305734  0.38887914     0.17100
N904        N  0.05378669  0.67399972  0.35738690     0.00800
C905        C  0.03081438  0.68108069  0.36953493     0.03400
C906        C  0.04149514  0.71632738  0.36719664    -0.19500
C907        C  0.07113836  0.73110680  0.35250499    -0.19700
C908        C  0.07776368  0.70448038  0.34633215     0.03300
H909        H  0.52656679  0.72887164  0.37241219     0.17100
H910        H  0.08336309  0.75713155  0.34426170     0.17100
N911        N  0.40890240  0.60047843  0.20918889     0.00800
C912        C  0.38448543  0.60677477  0.21969721     0.03400
C913        C  0.38931375  0.63872772  0.21157598    -0.19500
C914        C  0.41845113  0.65318349  0.19636081    -0.19700
C915        C  0.43061915  0.62968452  0.19572579     0.03300
H916        H  0.37636738  0.65235558  0.21883699     0.17100
H917        H  0.43229406  0.68014405  0.18982541     0.17100
N918        N  0.38782412  0.00271241  0.18953196     0.00800
C919        C  0.36654514  0.97330689  0.20302086     0.03400
C920        C  0.37935324  0.95033340  0.20223569    -0.19500
C921        C  0.40847214  0.96531989  0.18700944    -0.19700
C922        C  0.41266195  0.99705500  0.17899250     0.03300
H923        H  0.36602432  0.92338157  0.20878228     0.17100
H924        H  0.42185241  0.95216022  0.17967287     0.17100
N925        N  0.27523310  0.83564904  0.35814999     0.00800
C926        C  0.26786780  0.80641601  0.37153285     0.03400
C927        C  0.23217781  0.78286391  0.37086739    -0.19500
C928        C  0.21740815  0.79736498  0.35576803    -0.19700
C929        C  0.24450447  0.82937015  0.34767239     0.03300
H930        H  0.21910949  0.75583049  0.37723848     0.17100
H931        H  0.19084774  0.78365564  0.34843761     0.17100
N932        N  0.35232679  0.93358273  0.37699130     0.00800
C933        C  0.36003640  0.96322399  0.36398838     0.03400
C934        C  0.39567984  0.98681986  0.36523239    -0.19500
C935        C  0.41014437  0.97183308  0.38012538    -0.19700
C936        C  0.38291755  0.93949702  0.38749236     0.03300
H937        H  0.40893182  0.51395618  0.35912490     0.17100
H938        H  0.43662749  0.98515317  0.38761034     0.17100
N939        N  0.18424757  0.59766593  0.70897578     0.00800
C940        C  0.19244308  0.62724340  0.69567898     0.03400
C941        C  0.22829058  0.65005568  0.69647915    -0.19500
C942        C  0.24236070  0.63472564  0.71142490    -0.19700
C943        C  0.21472608  0.60299664  0.71935343     0.03300
H944        H  0.24203419  0.67711915  0.69018096     0.17100
H945        H  0.26892451  0.64770551  0.71875561     0.17100
N946        N  0.10641183  0.99989299  0.69076513     0.00800
C947        C  0.09917469  0.97027571  0.70360919     0.03400
C948        C  0.06373884  0.94601393  0.70186159    -0.19500
C949        C  0.04902964  0.96055387  0.68674340    -0.19700
C950        C  0.07587980  0.99336626  0.67983909     0.03300
H951        H  0.05096111  0.91878214  0.70774382     0.17100
H952        H  0.02278260  0.94675221  0.67886025     0.17100
N953        N  0.27787164  0.50638387  0.52340398     0.00800
C954        C  0.30740940  0.51450109  0.53675382     0.03400
C955        C  0.33014826  0.55035750  0.53612918    -0.19500
C956        C  0.31491664  0.56449610  0.52113234    -0.19700
C957        C  0.28323238  0.53690846  0.51305456     0.03300
H958        H  0.35716175  0.56407879  0.54254403     0.17100
H959        H  0.32796170  0.59110023  0.51388581     0.17100
N960        N  0.18041606  0.92880519  0.54262534     0.00800
C961        C  0.15103395  0.92113540  0.52934885     0.03400
C962        C  0.12754624  0.88544757  0.53027696    -0.19500
C963        C  0.14230858  0.87096073  0.54539954    -0.19700
C964        C  0.17442639  0.89822152  0.55315096     0.03300
H965        H  0.10052264  0.87218266  0.52387597     0.17100
H966        H  0.12889000  0.84442861  0.55278325     0.17100
N967        N  0.34828225  0.76151806  0.20870794     0.00800
C968        C  0.31848118  0.75456067  0.19625257     0.03400
C969        C  0.29400829  0.71919702  0.19804077    -0.19500
C970        C  0.30868484  0.70422351  0.21273137    -0.19700
C971        C  0.34169115  0.73088381  0.21949332     0.03300
H972        H  0.26660812  0.70668139  0.19259912     0.17100
H973        H  0.29475622  0.67803321  0.22069988     0.17100
N974        N  0.44630521  0.83867957  0.18989429     0.00800
C975        C  0.47619343  0.84658075  0.20263672     0.03400
C976        C  0.00002822  0.88200931  0.20057464    -0.19500
C977        C  0.48502186  0.89616012  0.18538199    -0.19700
C978        C  0.45236188  0.86888781  0.17865840     0.03300
H979        H  0.02737475  0.89519949  0.20621641     0.17100
H980        H  0.99844444  0.92218701  0.17723970     0.17100
N981        N  0.44084889  0.66603098  0.02287755     0.00800
C982        C  0.43327200  0.63595928  0.03518965     0.03400
C983        C  0.39782962  0.61188004  0.03316826    -0.19500
C984        C  0.38339025  0.62709970  0.01850313    -0.19700
C985        C  0.41046469  0.65996886  0.01192650     0.03300
H986        H  0.38487195  0.58444203  0.03854315     0.17100
H987        H  0.35724552  0.61361554  0.01042703     0.17100
N988        N  0.01760245  0.76337863  0.04360831     0.00800
C989        C  0.02600821  0.79318706  0.03055490     0.03400
C990        C  0.06172260  0.81633464  0.03206377    -0.19500
C991        C  0.07554636  0.80090629  0.04711287    -0.19700
C992        C  0.04785946  0.76885632  0.05449361     0.03300
H993        H  0.07540595  0.84355490  0.02611356     0.17100
H994        H  0.10184818  0.81398246  0.05492521     0.17100
N995        N  0.11056569  0.66934835  0.85505163     0.00800
C996        C  0.14028754  0.67733146  0.86807659     0.03400
C997        C  0.16353604  0.71305314  0.86697883    -0.19500
C998        C  0.14824989  0.72732360  0.85220596    -0.19700
C999        C  0.11612263  0.69990102  0.84468742     0.03300
H1000       H  0.19067977  0.72653441  0.87310771     0.17100
H1001       H  0.16132548  0.75385460  0.84482104     0.17100
N1002       N  0.01284375  0.59293045  0.87492512     0.00800
C1003       C  0.48328479  0.58546732  0.86191358     0.03400
C1004       C  0.45907255  0.55005082  0.86373751    -0.19500
C1005       C  0.47358421  0.53553143  0.87906019    -0.19700
C1006       C  0.50628196  0.56247797  0.88608770     0.03300
H1007       H  0.43188738  0.53716213  0.85772193     0.17100
H1008       H  0.45980132  0.50931497  0.88697984     0.17100
O1009       O  0.37223452  0.62901689  0.79904010    -0.75900
O1010       O  0.20551938  0.54627363  0.88026322    -0.77400
O1011       O  0.29210425  0.52471154  0.84982055    -0.74400
O1012       O  0.25052028  0.57411158  0.79883371    -0.72800
O1013       O  0.25014772  0.62608385  0.79971107    -0.74600
O1014       O  0.32631424  0.54139361  0.88538927    -0.75500
O1015       O  0.22219411  0.52905646  0.84456861    -0.76900
O1016       O  0.32026161  0.57658177  0.79955800    -0.77200
Eu1017     Eu  0.28381197  0.57405491  0.83606959     2.39200
O1018       O  0.25455438  0.60355448  0.85081092    -0.84700
O1019       O  0.34232706  0.60337487  0.85065635    -0.88300
C1020       C  0.35022307  0.59880049  0.78970194     1.06400
C1021       C  0.19952244  0.52507107  0.86159224     1.06200
C1022       C  0.30778858  0.51881180  0.86823393     1.06200
C1023       C  0.24237054  0.59624785  0.78963469     1.04000
H1024       H  0.27088779  0.55014841  0.88676936     0.33800
O1025       O  0.28344813  0.57395158  0.88058940    -0.97100
H1026       H  0.31320482  0.63306016  0.80384476     0.33800
O1027       O  0.31318056  0.63288631  0.82203981    -0.99600
O1028       O  0.25550516  0.63669771  0.93303143    -0.76800
O1029       O  0.42131310  0.71961153  0.84999663    -0.76400
O1030       O  0.30907506  0.57073475  0.93291584    -0.74800
O1031       O  0.22617607  0.65318707  0.85023693    -0.78100
O1032       O  0.31710237  0.69705159  0.79961403    -0.76000
O1033       O  0.39965868  0.61146390  0.88007669    -0.74600
O1034       O  0.37602003  0.69045168  0.93278276    -0.76200
O1035       O  0.33464065  0.73995511  0.88135188    -0.78100
O1036       O  0.37616483  0.63835590  0.93191536    -0.74800
O1037       O  0.29927950  0.72302498  0.84636719    -0.77500
O1038       O  0.25658854  0.57014908  0.93224220    -0.73200
O1039       O  0.41703830  0.64595515  0.84463579    -0.73300
O1040       O  0.36898692  0.69648820  0.79979197    -0.72900
O1041       O  0.20886467  0.61924097  0.88591459    -0.76400
O1042       O  0.30774750  0.68887266  0.93238265    -0.75800
O1043       O  0.40487370  0.73665525  0.88587362    -0.74200
Eu1044     Eu  0.25441324  0.60342959  0.89526417     2.39800
Eu1045     Eu  0.37188544  0.66224121  0.83610870     2.39600
Eu1046     Eu  0.34232926  0.60268851  0.89508174     2.38400
Eu1047     Eu  0.28393644  0.66219434  0.83644027     2.39900
Eu1048     Eu  0.34335398  0.69122156  0.89541503     2.39800
O1049       O  0.34283088  0.69146534  0.85099571    -0.88600
O1050       O  0.31329979  0.63233172  0.90882507    -0.87500
C1051       C  0.27789578  0.66681039  0.94243686     1.06600
C1052       C  0.42740492  0.74092029  0.86860099     1.05300
C1053       C  0.27896768  0.56287874  0.94236736     1.04700
C1054       C  0.20467621  0.63758986  0.86868038     1.06700
C1055       C  0.34720993  0.70500134  0.79016478     1.05600
C1056       C  0.42101977  0.62713669  0.86155066     1.04500
C1057       C  0.38394817  0.66818151  0.94200402     1.04500
C1058       C  0.31837071  0.74565362  0.86328879     1.07100
H1059       H  0.39581374  0.67246624  0.88675882     0.34500
O1060       O  0.37199831  0.66129315  0.88060420    -1.00700
H1061       H  0.27346706  0.67476996  0.88722614     0.36600
O1062       O  0.28470134  0.66228658  0.88091418    -1.03300
O1063       O  0.41773672  0.96130244  0.96601596    -0.75900
O1064       O  0.00262047  0.87972234  0.04861618    -0.77400
O1065       O  0.48518925  0.90937677  0.96517616    -0.74400
O1066       O  0.39511561  0.85837497  0.01821328    -0.72800
O1067       O  0.37755390  0.87523675  0.05365414    -0.74600
O1068       O  0.03759761  0.96139296  0.96598588    -0.75500
O1069       O  0.46855451  0.86232108  0.01294704    -0.76900
O1070       O  0.41786983  0.90919921  0.96683169    -0.77200
Eu1071     Eu  0.45224575  0.90743254  0.00332518     2.39200
O1072       O  0.45241168  0.90787764  0.04773294    -0.84700
O1073       O  0.48099698  0.96622207  0.98977250    -0.88300
C1074       C  0.40985828  0.93111298  0.95681605     1.06400
C1075       C  0.98699366  0.85819627  0.03016702     1.06200
C1076       C  0.01520990  0.93182358  0.95573631     1.06200
C1077       C  0.37367209  0.85253611  0.03670317     1.04000
H1078       H  0.02383267  0.92678665  0.01142231     0.33800
O1079       O  0.01121637  0.93790529  0.01770077    -0.97100
H1080       H  0.39846170  0.92322945  0.01180773     0.33800
O1081       O  0.42228800  0.93596475  0.01793345    -0.99600
O1082       O  0.04447824  0.97086536  0.09947454    -0.76800
O1083       O  0.45902240  0.55188688  0.01749177    -0.76400
O1084       O  0.08915447  0.98863133  0.01791532    -0.74800
O1085       O  0.42233300  0.90295170  0.09929997    -0.78100
O1086       O  0.37282982  0.94441483  0.04850323    -0.76000
O1087       O  0.03840976  0.52848161  0.96541058    -0.74600
O1088       O  0.06758602  0.57430789  0.04864836    -0.76200
O1089       O  0.47691942  0.02590669  0.09922995    -0.78100
O1090       O  0.08471308  0.55824321  0.01263177    -0.74800
O1091       O  0.42515945  0.97328237  0.09901512    -0.77500
O1092       O  0.07245606  0.95394239  0.05324194    -0.73200
O1093       O  0.48604212  0.52804170  0.96623217    -0.73300
O1094       O  0.38923092  0.97851785  0.01291203    -0.72900
O1095       O  0.47475286  0.90342584  0.09879156    -0.76400
O1096       O  0.04448155  0.52301346  0.09881128    -0.75800
O1097       O  0.49427829  0.57029191  0.05252520    -0.74200
Eu1098     Eu  0.01101397  0.93742401  0.06223415     2.39800
Eu1099     Eu  0.45068758  0.99468368  0.00328281     2.39600
Eu1100     Eu  0.03993133  0.99657012  0.00319723     2.38400
Eu1101     Eu  0.42247262  0.93670490  0.06240975     2.39900
Eu1102     Eu  0.51019794  0.52505945  0.06223478     2.39800
O1103       O  0.45132612  0.99507518  0.04768508    -0.88600
O1104       O  0.03998250  0.99630752  0.04765824    -0.87500
C1105       C  0.05252199  0.50106578  0.10876764     1.06600
C1106       C  0.47511746  0.57378416  0.03561854     1.05300
C1107       C  0.09513134  0.97301079  0.03633035     1.04700
C1108       C  0.44465549  0.89518302  0.10862580     1.06700
C1109       C  0.36668748  0.95989106  0.03007816     1.05600
C1110       C  0.51583969  0.53592659  0.95605836     1.04500
C1111       C  0.08889255  0.58055196  0.03004170     1.04500
C1112       C  0.44692352  0.00352896  0.10873160     1.07100
H1113       H  0.52040746  0.54847042  0.01147077     0.34500
O1114       O  0.50937097  0.52472004  0.01773563    -1.00700
H1115       H  0.48134241  0.96643076  0.09458461     0.36600
O1116       O  0.48127303  0.96636824  0.07638974    -1.03300
O1117       O  0.37737801  0.63838561  0.43274964    -0.75900
O1118       O  0.29290647  0.72145172  0.35130891    -0.77400
O1119       O  0.40092216  0.74322294  0.38197419    -0.74400
O1120       O  0.30973975  0.69430144  0.43253800    -0.72800
O1121       O  0.25743514  0.64220855  0.43176961    -0.74600
O1122       O  0.41846855  0.72654019  0.34645892    -0.75500
O1123       O  0.32734277  0.73899766  0.38678448    -0.76900
O1124       O  0.37710517  0.69042396  0.43226169    -0.77200
Eu1125     Eu  0.34340506  0.69378584  0.39570552     2.39200
O1126       O  0.28463783  0.66426111  0.38085768    -0.84700
O1127       O  0.37261542  0.66446015  0.38132021    -0.88300
C1128       C  0.38526335  0.66848619  0.44209829     1.06400
C1129       C  0.30854790  0.74290207  0.36981092     1.06200
C1130       C  0.42245717  0.74921727  0.36353656     1.06200
C1131       C  0.27942049  0.67217565  0.44171555     1.04000
H1132       H  0.35417009  0.71740975  0.34492638     0.33800
O1133       O  0.34290004  0.69364103  0.35117430    -0.97100
H1134       H  0.31380014  0.63511946  0.42803458     0.33800
O1135       O  0.31389902  0.63509065  0.40983962    -0.99600
O1136       O  0.25244720  0.63050752  0.29864898    -0.76800
O1137       O  0.33451122  0.54792473  0.38209607    -0.76400
O1138       O  0.37195552  0.69669082  0.29905205    -0.74800
O1139       O  0.20615559  0.61401530  0.38118065    -0.78100
O1140       O  0.25487951  0.57240553  0.43291941    -0.76000
O1141       O  0.42158136  0.65600662  0.35168795    -0.74600
O1142       O  0.31936256  0.57753412  0.29923102    -0.76200
O1143       O  0.22783234  0.52744047  0.35127993    -0.78100
O1144       O  0.37172813  0.62957129  0.30017504    -0.74800
O1145       O  0.21028220  0.54426512  0.38674316    -0.77500
O1146       O  0.32005918  0.69728466  0.29955057    -0.73200
O1147       O  0.40416607  0.62072425  0.38670436    -0.73300
O1148       O  0.30671701  0.57176244  0.43252050    -0.72900
O1149       O  0.22279136  0.64785346  0.34543942    -0.76400
O1150       O  0.25220412  0.57819809  0.29950771    -0.75800
O1151       O  0.30108759  0.53078506  0.34616582    -0.74200
Eu1152     Eu  0.28434424  0.66406547  0.33642845     2.39800
Eu1153     Eu  0.34313331  0.60552549  0.39585163     2.39600
Eu1154     Eu  0.37311425  0.66496473  0.33692728     2.38400
Eu1155     Eu  0.25529336  0.60572504  0.39543966     2.39900
Eu1156     Eu  0.28529883  0.57621575  0.33662212     2.39800
O1157       O  0.28473853  0.57625742  0.38106609    -0.88600
O1158       O  0.31432357  0.63509739  0.32319828    -0.87500
C1159       C  0.24474193  0.60038642  0.28930851     1.06600
C1160       C  0.31926386  0.52657900  0.36351607     1.05300
C1161       C  0.34980341  0.70461733  0.28956669     1.04700
C1162       C  0.20020033  0.62943038  0.36262051     1.06700
C1163       C  0.27683483  0.56419202  0.44242252     1.05600
C1164       C  0.42704528  0.63971665  0.36987950     1.04500
C1165       C  0.34967142  0.59980776  0.29002986     1.04500
C1166       C  0.20641159  0.52156829  0.36978739     1.07100
H1167       H  0.35652656  0.59508649  0.34527024     0.34500
O1168       O  0.34394741  0.60631553  0.35140139    -1.00700
H1169       H  0.23193354  0.59264929  0.34464683     0.36600
O1170       O  0.25567947  0.60525811  0.35094229    -1.03300
O1171       O  0.23365353  0.90795664  0.71518606    -0.75900
O1172       O  0.15082558  0.74217394  0.63231162    -0.77400
O1173       O  0.25414518  0.82141258  0.68438927    -0.74400
O1174       O  0.20455777  0.86320658  0.63256276    -0.72800
O1175       O  0.15245855  0.86338627  0.63333598    -0.74600
O1176       O  0.23739723  0.78755680  0.72015068    -0.75500
O1177       O  0.20302311  0.79440442  0.63293212    -0.76900
O1178       O  0.25112287  0.89129399  0.67961128    -0.77200
Eu1179     Eu  0.20545855  0.83014674  0.66985602     2.39200
O1180       O  0.14664290  0.80032139  0.65627488    -0.84700
O1181       O  0.20515657  0.82952400  0.71429841    -0.88300
C1182       C  0.25522313  0.91386101  0.69677651     1.06400
C1183       C  0.18090303  0.76452387  0.62293346     1.06200
C1184       C  0.26002897  0.80613834  0.70307476     1.06200
C1185       C  0.18229157  0.87115678  0.62327934     1.04000
H1186       H  0.18915446  0.76043830  0.67816336     0.33800
O1187       O  0.17653777  0.77156939  0.68440890    -0.97100
H1188       H  0.18673030  0.88265461  0.67845275     0.33800
O1189       O  0.17548618  0.85883094  0.68459080    -0.99600
O1190       O  0.06033653  0.69285597  0.68455131    -0.76800
O1191       O  0.14344012  0.85924732  0.76649746    -0.76400
O1192       O  0.16827754  0.71353150  0.71473387    -0.74800
O1193       O  0.08512423  0.79607522  0.63224726    -0.78100
O1194       O  0.12519351  0.88651645  0.68500835    -0.76000
O1195       O  0.20972118  0.80415709  0.76592783    -0.74600
O1196       O  0.08620312  0.73616594  0.76578428    -0.76200
O1197       O  0.03885874  0.77963222  0.71537059    -0.78100
O1198       O  0.13856400  0.73652512  0.76525910    -0.74800
O1199       O  0.05543051  0.81319072  0.67950679    -0.77500
O1200       O  0.13417161  0.69618210  0.67912875    -0.73200
O1201       O  0.21001445  0.85647142  0.76559979    -0.73300
O1202       O  0.15954745  0.90381832  0.72049631    -0.72900
O1203       O  0.08454918  0.74360419  0.63289800    -0.76400
O1204       O  0.04195319  0.70994821  0.71945416    -0.75800
O1205       O  0.09095180  0.80737259  0.76569880    -0.74200
Eu1206     Eu  0.11777553  0.74143818  0.66989139     2.39800
Eu1207     Eu  0.17601832  0.85876174  0.72906668     2.39600
Eu1208     Eu  0.17585022  0.77069224  0.72890684     2.38400
Eu1209     Eu  0.11689205  0.82933372  0.67007739     2.39900
Eu1210     Eu  0.08780227  0.77081465  0.72895250     2.39800
O1211       O  0.11708801  0.82940581  0.71453202    -0.88600
O1212       O  0.11738370  0.74154373  0.71428767    -0.87500
C1213       C  0.03840693  0.68719904  0.70264706     1.06600
C1214       C  0.11316459  0.83719822  0.77575571     1.05300
C1215       C  0.15283553  0.69212910  0.69619497     1.04700
C1216       C  0.07720510  0.76595120  0.62281927     1.06700
C1217       C  0.14077099  0.90784713  0.70356490     1.05600
C1218       C  0.21792438  0.83433459  0.77534616     1.04500
C1219       C  0.10840466  0.72818333  0.77507759     1.04500
C1220       C  0.03290960  0.79501101  0.69680454     1.07100
H1221       H  0.14652428  0.79982275  0.76128957     0.34500
O1222       O  0.14652258  0.79995283  0.74309571    -1.00700
H1223       H  0.06447691  0.75798198  0.67817982     0.36600
O1224       O  0.08823456  0.77047582  0.68445486    -1.03300
O1225       O  0.20812117  0.79701996  0.13379246    -0.75900
O1226       O  0.04053496  0.71464865  0.21574263    -0.77400
O1227       O  0.12637428  0.69256339  0.18484354    -0.74400
O1228       O  0.08398565  0.74134261  0.13406906    -0.72800
O1229       O  0.08383674  0.79343479  0.13438859    -0.74600
O1230       O  0.16091359  0.70937261  0.22023288    -0.75500
O1231       O  0.05728249  0.69722191  0.18016209    -0.76900
O1232       O  0.15558010  0.74515910  0.13433379    -0.77200
Eu1233     Eu  0.11856204  0.74205458  0.17083441     2.39200
O1234       O  0.08948860  0.77170508  0.18551508    -0.84700
O1235       O  0.17711762  0.77137513  0.18529186    -0.88300
C1236       C  0.18576526  0.76689034  0.12449298     1.06400
C1237       C  0.03469262  0.69325813  0.19722825     1.06200
C1238       C  0.14207840  0.68664426  0.20321950     1.06200
C1239       C  0.07564622  0.76327012  0.12471839     1.04000
H1240       H  0.10564627  0.71864152  0.22163193     0.33800
O1241       O  0.11822602  0.74238749  0.21534532    -0.97100
H1242       H  0.14768702  0.80036375  0.13830743     0.33800
O1243       O  0.14786094  0.80059898  0.15650179    -0.99600
O1244       O  0.09070952  0.80606395  0.26731280    -0.76800
O1245       O  0.25590946  0.88768029  0.18435821    -0.76400
O1246       O  0.14406519  0.73860570  0.26738759    -0.74800
O1247       O  0.06109233  0.82164416  0.18449074    -0.78100
O1248       O  0.15109257  0.86263166  0.13285536    -0.76000
O1249       O  0.23446346  0.77984678  0.21491922    -0.74600
O1250       O  0.20985001  0.85807175  0.26739190    -0.76200
O1251       O  0.16983971  0.90880314  0.21437737    -0.78100
O1252       O  0.21056978  0.80624966  0.26665487    -0.74800
O1253       O  0.13549052  0.89178465  0.17887574    -0.77500
O1254       O  0.09212667  0.73910155  0.26695078    -0.73200
O1255       O  0.25254476  0.81526836  0.17996392    -0.73300
O1256       O  0.20366381  0.86346369  0.13352996    -0.72900
O1257       O  0.04395490  0.78788638  0.22027625    -0.76400
O1258       O  0.14288768  0.85830402  0.26648575    -0.75800
O1259       O  0.23966220  0.90478339  0.22029894    -0.74200
Eu1260     Eu  0.08945282  0.77215749  0.22994635     2.39800
Eu1261     Eu  0.20666905  0.83022149  0.17052443     2.39600
Eu1262     Eu  0.17706397  0.77091796  0.22970251     2.38400
Eu1263     Eu  0.11862656  0.83006555  0.17058226     2.39900
Eu1264     Eu  0.17806172  0.85983348  0.22953163     2.39800
O1265       O  0.17759987  0.85966155  0.18504068    -0.88600
O1266       O  0.14833500  0.80104834  0.24330062    -0.87500
C1267       C  0.11308891  0.83623687  0.27659748     1.06600
C1268       C  0.26209854  0.90893763  0.20300586     1.05300
C1269       C  0.11412114  0.73113828  0.27688566     1.04700
C1270       C  0.03969817  0.80614642  0.20301667     1.06700
C1271       C  0.18127603  0.87081034  0.12343832     1.05600
C1272       C  0.25628639  0.79617803  0.19677007     1.04500
C1273       C  0.21784369  0.83588338  0.27679661     1.04500
C1274       C  0.15438444  0.91463584  0.19575629     1.07100
H1275       H  0.23022920  0.84067511  0.22125390     0.34500
O1276       O  0.20645187  0.82947165  0.21502642    -1.00700
H1277       H  0.10823529  0.84344140  0.22127505     0.36600
O1278       O  0.11939769  0.83081384  0.21510554    -1.03300
O1279       O  0.42277377  0.97269403  0.60035723    -0.75900
O1280       O  0.08890084  0.55536991  0.51810298    -0.77400
O1281       O  0.04234001  0.52600091  0.60081693    -0.74400
O1282       O  0.00218427  0.57626443  0.54800323    -0.72800
O1283       O  0.46772093  0.55936066  0.51252487    -0.74600
O1284       O  0.04239087  0.97385850  0.59986608    -0.75500
O1285       O  0.07220685  0.57281005  0.55367746    -0.76900
O1286       O  0.47492582  0.52506627  0.59984545    -0.77200
Eu1287     Eu  0.01064190  0.52748390  0.56298539     2.39200
O1288       O  0.01037933  0.52716636  0.51859429    -0.84700
O1289       O  0.48050577  0.96851161  0.57633298    -0.88300
C1290       C  0.44511971  0.50275662  0.60983137     1.06400
C1291       C  0.09484583  0.57686479  0.53656868     1.06200
C1292       C  0.04996752  0.00353674  0.61007925     1.06200
C1293       C  0.98655382  0.58205686  0.52949572     1.04000
H1294       H  0.06283639  0.00821406  0.55493745     0.33800
O1295       O  0.03909896  0.99709584  0.54862416    -0.97100
H1296       H  0.44097498  0.51133107  0.55446941     0.33800
O1297       O  0.45213692  0.49872090  0.54826979    -0.99600
O1298       O  0.03994113  0.96443232  0.46697027    -0.76800
O1299       O  0.37305079  0.88254871  0.54797256    -0.76400
O1300       O  0.06658111  0.94675476  0.54850484    -0.74800
O1301       O  0.98527857  0.53203560  0.46688838    -0.78100
O1302       O  0.39405900  0.49025185  0.51762612    -0.76000
O1303       O  0.47537936  0.90576864  0.60030989    -0.74600
O1304       O  0.45961435  0.86071597  0.51726465    -0.76200
O1305       O  0.41784683  0.90903197  0.46666746    -0.78100
O1306       O  0.49295801  0.87689731  0.55321968    -0.74800
O1307       O  0.41815455  0.96135414  0.46710250    -0.77500
O1308       O  0.08453524  0.98146091  0.51319059    -0.73200
O1309       O  0.42338321  0.90613971  0.59949875    -0.73300
O1310       O  0.37653242  0.95627487  0.55329656    -0.72900
O1311       O  0.03720987  0.53153938  0.46752511    -0.76400
O1312       O  0.48789946  0.91208935  0.46740607    -0.75800
O1313       O  0.39019321  0.86434407  0.51301862    -0.74200
Eu1314     Eu  0.03959587  0.99782273  0.50414681     2.36200
Eu1315     Eu  0.42173458  0.93983308  0.56261793     2.39600
Eu1316     Eu  0.50919574  0.93833581  0.56290164     2.38400
Eu1317     Eu  0.45156818  0.49810536  0.50377336     2.39900
Eu1318     Eu  0.45140569  0.90995992  0.50380817     2.39800
O1319       O  0.42209664  0.93959472  0.51822660    -0.88600
O1320       O  0.50986464  0.93886402  0.51850402    -0.87500
C1321       C  0.51791336  0.93420093  0.45756675     1.06600
C1322       C  0.36738700  0.86068982  0.52983797     1.05300
C1323       C  0.08817983  0.96245571  0.53011601     1.04700
C1324       C  0.01541085  0.53978385  0.45761283     1.06700
C1325       C  0.37254987  0.47491186  0.53614316     1.05600
C1326       C  0.44527991  0.89819446  0.60960485     1.04500
C1327       C  0.47478523  0.85453549  0.53583562     1.04500
C1328       C  0.41011087  0.93131081  0.45724594     1.07100
H1329       H  0.43782511  0.88615635  0.55439499     0.34500
O1330       O  0.45051292  0.90996585  0.54823872    -1.00700
H1331       H  0.48113982  0.96878326  0.47160447     0.36600
O1332       O  0.48098597  0.96875099  0.48979748    -1.03300
C1333       C  0.52098138  0.56049476  0.91001798    -0.09000
C1334       C  0.52296586  0.55228827  0.93149363    -0.10600
C1335       C  0.47040204  0.60976933  0.85862847    -0.09000
C1336       C  0.45062689  0.62149756  0.85909002    -0.10600
C1337       C  0.10046677  0.71088715  0.79928232    -0.09000
C1338       C  0.10180919  0.70215445  0.82069924    -0.10600
C1339       C  0.15434405  0.65389461  0.87097354    -0.09000
C1340       C  0.17472457  0.64284414  0.87067943    -0.10600
C1341       C  0.07657954  0.64184128  0.86163692    -0.09000
C1342       C  0.04706736  0.61986162  0.86823610    -0.10600
C1343       C  0.05813358  0.75488135  0.10057912    -0.09000
C1344       C  0.04945460  0.75537201  0.07899627    -0.10600
C1345       C  0.00285290  0.80754339  0.02758811    -0.09000
C1346       C  0.99212555  0.82817629  0.02806688    -0.10600
C1347       C  0.46944897  0.60338633  0.03766503    -0.09000
C1348       C  0.45757321  0.62302597  0.03809148    -0.10600
C1349       C  0.40069254  0.67584153  0.96636242    -0.09000
C1350       C  0.40887130  0.67450642  0.98791590    -0.10600
C1351       C  0.46804558  0.70003527  0.02985385    -0.09000
C1352       C  0.49014874  0.72942155  0.03668038    -0.10600
C1353       C  0.98961841  0.82266971  0.20569702    -0.09000
C1354       C  0.00982326  0.81144488  0.20518278    -0.10600
C1355       C  0.43797416  0.87022696  0.15452583    -0.09000
C1356       C  0.43682689  0.87834834  0.13293165    -0.10600
C1357       C  0.35748918  0.72085992  0.26504021    -0.09000
C1358       C  0.35608154  0.72884738  0.24345066    -0.10600
C1359       C  0.30586522  0.77915794  0.19373230    -0.09000
C1360       C  0.28609989  0.79087094  0.19450050    -0.10600
C1361       C  0.41219745  0.81122613  0.19639429    -0.09000
C1362       C  0.38255219  0.78899077  0.20260424    -0.10600
C1363       C  0.18984773  0.88781642  0.59885136    -0.09000
C1364       C  0.18837670  0.89603154  0.57730936    -0.10600
C1365       C  0.13736331  0.94486242  0.52682853    -0.09000
C1366       C  0.11758935  0.95654840  0.52770438    -0.10600
C1367       C  0.26986209  0.53918694  0.48858572    -0.09000
C1368       C  0.26892318  0.54759597  0.46695684    -0.10600
C1369       C  0.34281652  0.48066078  0.53835336    -0.09000
C1370       C  0.32228206  0.49158779  0.53904862    -0.10600
C1371       C  0.24393391  0.97870560  0.52987425    -0.09000
C1372       C  0.21449855  0.95633126  0.53630444    -0.10600
C1373       C  0.13515717  0.93750781  0.70601921    -0.09000
C1374       C  0.12354083  0.95739244  0.70658899    -0.10600
C1375       C  0.07388985  0.00835429  0.65612822    -0.09000
C1376       C  0.06605459  0.01058391  0.63464590    -0.10600
C1377       C  0.16947728  0.64196194  0.69320692    -0.09000
C1378       C  0.15851406  0.66242826  0.69387944    -0.10600
C1379       C  0.21690249  0.58949410  0.74373129    -0.09000
C1380       C  0.22549493  0.58853255  0.76526864    -0.10600
C1381       C  0.13387227  0.53409306  0.69674670    -0.09000
C1382       C  0.15631914  0.56370438  0.70278553    -0.10600
C1383       C  0.32483002  0.49686787  0.36142518    -0.09000
C1384       C  0.33624410  0.47681079  0.36103341    -0.10600
C1385       C  0.38513572  0.92502006  0.41137934    -0.09000
C1386       C  0.39347231  0.92354308  0.43286110    -0.10600
C1387       C  0.29152238  0.79254564  0.37348103    -0.09000
C1388       C  0.30288893  0.77249904  0.37230540    -0.10600
C1389       C  0.24212128  0.84229081  0.32310032    -0.09000
C1390       C  0.23404465  0.84334524  0.30142379    -0.10600
C1391       C  0.30255325  0.86990003  0.36439428    -0.09000
C1392       C  0.32477095  0.89948826  0.37067431    -0.10600
C1393       C  0.42827578  0.01049191  0.15458570    -0.09000
C1394       C  0.43780215  0.01145343  0.13304184    -0.10600
C1395       C  0.29748597  0.93855155  0.20519465    -0.09000
C1396       C  0.32894866  0.95883328  0.20571367    -0.10600
C1397       C  0.36875070  0.59355052  0.24411792    -0.09000
C1398       C  0.35899479  0.59231637  0.26563443    -0.10600
C1399       C  0.46810612  0.64359135  0.19365801    -0.09000
C1400       C  0.99949457  0.66365319  0.19479364    -0.10600
C1401       C  0.40177765  0.56625635  0.20262997    -0.09000
C1402       C  0.39442101  0.53676669  0.19606372    -0.10600
C1403       C  0.49365177  0.65642265  0.37254115    -0.09000
C1404       C  0.46214859  0.64484431  0.37207599    -0.10600
C1405       C  0.10514387  0.71461742  0.30133345    -0.09000
C1406       C  0.09502369  0.70638632  0.32277422    -0.10600
C1407       C  0.03425562  0.56500865  0.41178023    -0.09000
C1408       C  0.02465879  0.55668902  0.43331186    -0.10600
C1409       C  0.13344346  0.61259629  0.36014932    -0.09000
C1410       C  0.16492314  0.62393114  0.36042764    -0.10600
C1411       C  0.06779635  0.62427485  0.37000113    -0.09000
C1412       C  0.06049207  0.64654314  0.36370673    -0.10600
C1413       C  0.29980560  0.94333838  0.02738455    -0.09000
C1414       C  0.33126736  0.95426891  0.02799592    -0.10600
C1415       C  0.18988918  0.88719886  0.09884237    -0.09000
C1416       C  0.19914757  0.89559959  0.07720802    -0.10600
C1417       C  0.26129000  0.53921642  0.98875030    -0.09000
C1418       C  0.27039278  0.54695240  0.96705426    -0.10600
C1419       C  0.13053819  0.97900505  0.03872862    -0.09000
C1420       C  0.16203590  0.99064699  0.03954875    -0.10600
C1421       C  0.23444858  0.95636807  0.03613575    -0.09000
C1422       C  0.22757517  0.97891908  0.02981409    -0.10600
C1423       C  0.18979202  0.75690987  0.59851408    -0.09000
C1424       C  0.19948738  0.75852489  0.57699630    -0.10600
C1425       C  0.33213161  0.83088712  0.52774558    -0.09000
C1426       C  0.30060712  0.81098427  0.52736666    -0.10600
C1427       C  0.13018556  0.60660247  0.53879833    -0.09000
C1428       C  0.16168199  0.62673354  0.53919093    -0.10600
C1429       C  0.27022302  0.67994112  0.46600626    -0.09000
C1430       C  0.26073981  0.67868004  0.48757530    -0.10600
C1431       C  0.22712979  0.70427397  0.52942750    -0.09000
C1432       C  0.23432188  0.73372716  0.53590521    -0.10600
C1433       C  0.36631750  0.73125789  0.74454491    -0.09000
C1434       C  0.35650887  0.72248021  0.76600987    -0.10600
C1435       C  0.46626404  0.77882435  0.69406579    -0.09000
C1436       C  0.99768021  0.78970760  0.69468836    -0.10600
C1437       C  0.29534762  0.81209860  0.70564134    -0.09000
C1438       C  0.32684393  0.82393663  0.70650132    -0.10600
C1439       C  0.42631383  0.87355844  0.65561443    -0.09000
C1440       C  0.43607759  0.88171834  0.63408170    -0.10600
C1441       C  0.39333803  0.81366164  0.69703032    -0.09000
C1442       C  0.40082142  0.79158782  0.70345659    -0.10600
C1443       C  0.13246907  0.97621720  0.85836794    -0.09000
C1444       C  0.16405750  0.49574956  0.85906887    -0.10600
C1445       C  0.03297166  0.92628358  0.90928642    -0.09000
C1446       C  0.02375290  0.92474631  0.93096283    -0.10600
C1447       C  0.46278323  0.77072187  0.87077816    -0.09000
C1448       C  0.49422108  0.79128042  0.87151308    -0.10600
C1449       C  0.10414325  0.84503240  0.80012511    -0.09000
C1450       C  0.09458304  0.84417159  0.82164528    -0.10600
C1451       C  0.05941589  0.86986607  0.86240393    -0.09000
C1452       C  0.06646697  0.89942163  0.86847769    -0.10600
C1453       C  0.22869198  0.59147637  0.26468991    -0.09000
C1454       C  0.22084254  0.58171331  0.24313420    -0.10600
C1455       C  0.16027248  0.95004074  0.19315689    -0.09000
C1456       C  0.17183345  0.98156147  0.19245239    -0.10600
C1457       C  0.06966060  0.51030304  0.13308746    -0.09000
C1458       C  0.07838074  0.52002161  0.15460042    -0.10600
C1459       C  0.12540762  0.61980022  0.20576446    -0.09000
C1460       C  0.13647434  0.65126948  0.20539153    -0.10600
C1461       C  0.16073954  0.54758683  0.20231559    -0.09000
C1462       C  0.13833664  0.55470828  0.19609286    -0.10600
C1463       C  0.15717249  0.95474090  0.37308776    -0.09000
C1464       C  0.17693570  0.98624588  0.37226477    -0.10600
C1465       C  0.10561745  0.84529705  0.30104548    -0.09000
C1466       C  0.10695143  0.85490402  0.32258344    -0.10600
C1467       C  0.02509966  0.91585630  0.41158791    -0.09000
C1468       C  0.52591982  0.92524065  0.43318540    -0.10600
C1469       C  0.47250826  0.81615605  0.36075940    -0.09000
C1470       C  0.45215302  0.78466369  0.36130888    -0.10600
C1471       C  0.05077994  0.88130684  0.37009217    -0.09000
C1472       C  0.08022650  0.88846208  0.36362762    -0.10600
C1473       C  0.13906053  0.64727411  0.02801876    -0.09000
C1474       C  0.11867692  0.61584369  0.02813681    -0.10600
C1475       C  0.19213586  0.74750833  0.07880759    -0.09000
C1476       C  0.19355969  0.75751645  0.10025268    -0.10600
C1477       C  0.27200278  0.68617403  0.98833673    -0.09000
C1478       C  0.27038317  0.67601715  0.96688665    -0.10600
C1479       C  0.32374902  0.78587988  0.03960949    -0.09000
C1480       C  0.34395822  0.81730961  0.03905206    -0.10600
C1481       C  0.24638134  0.71990292  0.03037172    -0.09000
C1482       C  0.21701660  0.71271373  0.03718447    -0.10600
C1483       C  0.05274944  0.74803518  0.57664249    -0.09000
C1484       C  0.06091103  0.75724940  0.59826786    -0.10600
C1485       C  0.99216509  0.61725718  0.52704244    -0.09000
C1486       C  0.00360299  0.64868015  0.52611426    -0.10600
C1487       C  0.45806768  0.78776436  0.53815265    -0.09000
C1488       C  0.46921261  0.81921765  0.53781840    -0.10600
C1489       C  0.40212558  0.67748852  0.46641679    -0.09000
C1490       C  0.41043143  0.68718527  0.48792441    -0.10600
C1491       C  0.47053589  0.72227728  0.52882137    -0.09000
C1492       C  0.49271316  0.71492193  0.53521635    -0.10600
C1493       C  0.32376809  0.78079536  0.86126445    -0.09000
C1494       C  0.33558061  0.81228640  0.86074395    -0.10600
C1495       C  0.38496777  0.91234913  0.91096588    -0.09000
C1496       C  0.39303219  0.92192024  0.93250940    -0.10600
C1497       C  0.23498766  0.84315539  0.79961372    -0.09000
C1498       C  0.24352085  0.85227610  0.82120152    -0.10600
C1499       C  0.29154520  0.95221159  0.87123924    -0.09000
C1500       C  0.30249744  0.98361113  0.87043563    -0.10600
C1501       C  0.32557684  0.87891898  0.86939427    -0.09000
C1502       C  0.30342120  0.88622393  0.86281077    -0.10600
C1503       C  0.00878342  0.65195245  0.70489593    -0.09000
C1504       C  0.98923286  0.62043044  0.70575564    -0.10600
C1505       C  0.43912062  0.52022246  0.65609911    -0.09000
C1506       C  0.43762332  0.51119561  0.63442162    -0.10600
C1507       C  0.28509435  0.94910834  0.69458188    -0.09000
C1508       C  0.30532625  0.98056395  0.69381978    -0.10600
C1509       C  0.35723397  0.58084237  0.74376721    -0.09000
C1510       C  0.35823486  0.59006058  0.76536054    -0.10600
C1511       C  0.41258640  0.55383527  0.69671076    -0.09000
C1512       C  0.38294790  0.54660251  0.70271145    -0.10600
N1513       N  0.84886879  0.04026547  0.70895388     0.00800
C1514       C  0.81895992  0.01803577  0.69631760     0.03400
C1515       C  0.79528678  0.02993758  0.69788110    -0.19500
C1516       C  0.81054416  0.05958335  0.71257064    -0.19700
C1517       C  0.84305961  0.06489261  0.71961979     0.03300
H1518       H  0.76795290  0.51578144  0.69226078     0.17100
H1519       H  0.79719707  0.07252243  0.72036728     0.17100
N1520       N  0.94678702  0.06044552  0.69083251     0.00800
C1521       C  0.97649109  0.08317133  0.70340415     0.03400
C1522       C  0.50083980  0.07206871  0.70184435    -0.19500
C1523       C  0.98606492  0.04236058  0.68717922    -0.19700
C1524       C  0.95323963  0.03628690  0.68016645     0.03300
H1525       H  0.52818921  0.08681759  0.70743216     0.17100
H1526       H  0.49996595  0.02995986  0.67935339     0.17100
N1527       N  0.77598071  0.39271175  0.85606408     0.00800
C1528       C  0.76808486  0.41467229  0.86882361     0.03400
C1529       C  0.73240832  0.40236231  0.86750292    -0.19500
C1530       C  0.71811668  0.37270878  0.85284399    -0.19700
C1531       C  0.74549106  0.36783422  0.84552881     0.03300
H1532       H  0.71904729  0.41627807  0.87326706     0.17100
H1533       H  0.69172612  0.35952659  0.84518616     0.17100
N1534       N  0.85285099  0.37206433  0.87601402     0.00800
C1535       C  0.86013847  0.34946312  0.86360984     0.03400
C1536       C  0.89550365  0.36050981  0.86563091    -0.19500
C1537       C  0.91017732  0.39009334  0.88038507    -0.19700
C1538       C  0.88330333  0.39615373  0.88699616     0.03300
H1539       H  0.90821173  0.34581830  0.86022283     0.17100
H1540       H  0.93630679  0.40250909  0.88847208     0.17100
N1541       N  0.94291475  0.22862398  0.52230961     0.00800
C1542       C  0.93478383  0.25022311  0.53534024     0.03400
C1543       C  0.89901544  0.23752133  0.53424706    -0.19500
C1544       C  0.88489218  0.20802049  0.51941377    -0.19700
C1545       C  0.91244720  0.20356342  0.51190339     0.03300
H1546       H  0.88539659  0.25100374  0.54042074     0.17100
H1547       H  0.85836306  0.19442518  0.51201848     0.17100
N1548       N  0.52007437  0.20808367  0.54159447     0.00800
C1549       C  0.52752220  0.18603502  0.52856045     0.03400
C1550       C  0.56309033  0.19777667  0.52983239    -0.19500
C1551       C  0.57773265  0.22713573  0.54481643    -0.19700
C1552       C  0.55067254  0.23243213  0.55228769     0.03300
H1553       H  0.57607280  0.18357260  0.52386079     0.17100
H1554       H  0.60410021  0.23983373  0.55249513     0.17100
N1555       N  0.78045842  0.22673440  0.02356128     0.00800
C1556       C  0.81017715  0.24852939  0.03656523     0.03400
C1557       C  0.83398889  0.23684729  0.03474369    -0.19500
C1558       C  0.81914084  0.20787705  0.01939251    -0.19700
C1559       C  0.78660748  0.20257411  0.01237820     0.03300
H1560       H  0.86121377  0.25087274  0.04069260     0.17100
H1561       H  0.83267034  0.19525198  0.01138693     0.17100
N1562       N  0.68313928  0.20631546  0.04408873     0.00800
C1563       C  0.65323275  0.18472900  0.03118090     0.03400
C1564       C  0.63003931  0.19721257  0.03262880    -0.19500
C1565       C  0.64550682  0.22659878  0.04755098    -0.19700
C1566       C  0.67769560  0.23120398  0.05479051     0.03300
H1567       H  0.60284352  0.18364191  0.02661356     0.17100
H1568       H  0.63253762  0.23999837  0.05519667     0.17100
N1569       N  0.51692485  0.37516370  0.37665598     0.00800
C1570       C  0.98730330  0.35385063  0.36338226     0.03400
C1571       C  0.96462329  0.36700756  0.36418191    -0.19500
C1572       C  0.98006767  0.39638590  0.37915667    -0.19700
C1573       C  0.51172748  0.40037377  0.38708658     0.03300
H1574       H  0.93757983  0.35380039  0.35783537     0.17100
H1575       H  0.96717625  0.41003202  0.38648889     0.17100
N1576       N  0.61443976  0.39537607  0.35729815     0.00800
C1577       C  0.64378615  0.41734895  0.37053759     0.03400
C1578       C  0.66756090  0.40553567  0.36954156    -0.19500
C1579       C  0.65303918  0.37629593  0.35441804    -0.19700
C1580       C  0.62075670  0.37103072  0.34673659     0.03300
H1581       H  0.69460861  0.41958143  0.37587773     0.17100
H1582       H  0.66670815  0.36349244  0.34696634     0.17100
N1583       N  0.61049866  0.06078524  0.18965537     0.00800
C1584       C  0.60218192  0.08222286  0.20274609     0.03400
C1585       C  0.56644200  0.06954519  0.20133036    -0.19500
C1586       C  0.55256813  0.04027230  0.18626724    -0.19700
C1587       C  0.58019838  0.03587847  0.17886664     0.03300
H1588       H  0.55274268  0.08300619  0.20736859     0.17100
H1589       H  0.52621359  0.02693241  0.17855504     0.17100
N1590       N  0.68825625  0.04094345  0.20839190     0.00800
C1591       C  0.69576713  0.01897699  0.19526375     0.03400
C1592       C  0.73136375  0.03080059  0.19660914    -0.19500
C1593       C  0.74591097  0.06000580  0.21177922    -0.19700
C1594       C  0.71880200  0.06527927  0.21914659     0.03300
H1595       H  0.74448048  0.51682244  0.19044197     0.17100
H1596       H  0.77229941  0.07281615  0.21942809     0.17100
N1597       N  0.55343482  0.33592693  0.85613183     0.00800
C1598       C  0.53201027  0.30631789  0.86939488     0.03400
C1599       C  0.54533036  0.28375818  0.86892895    -0.19500
C1600       C  0.57491636  0.29923110  0.85416711    -0.19700
C1601       C  0.57883854  0.33079640  0.84602387     0.03300
H1602       H  0.53211144  0.25673212  0.87530609     0.17100
H1603       H  0.58876265  0.28641326  0.84708010     0.17100
N1604       N  0.57309055  0.43362032  0.87435654     0.00800
C1605       C  0.59511364  0.46296539  0.86112736     0.03400
C1606       C  0.58338075  0.48680806  0.86223651    -0.19500
C1607       C  0.55413016  0.47228123  0.87737736    -0.19700
C1608       C  0.54882320  0.43996661  0.88502474     0.03300
H1609       H  0.59742755  0.01379691  0.85586542     0.17100
H1610       H  0.54142204  0.48599850  0.88491339     0.17100
N1611       N  0.88609826  0.34067083  0.69058033     0.00800
C1612       C  0.86414194  0.34800543  0.70384405     0.03400
C1613       C  0.87574322  0.38355040  0.70265249    -0.19500
C1614       C  0.90485492  0.39828503  0.68740516    -0.19700
C1615       C  0.91020305  0.37130716  0.67979901     0.03300
H1616       H  0.86161073  0.39646300  0.70894500     0.17100
H1617       H  0.91750449  0.42470911  0.67984053     0.17100
N1618       N  0.90727226  0.26399081  0.70987312     0.00800
C1619       C  0.92856057  0.25585108  0.69643306     0.03400
C1620       C  0.91554103  0.22001038  0.69711295    -0.19500
C1621       C  0.88632503  0.20587663  0.71224267    -0.19700
C1622       C  0.88223813  0.23346392  0.72025750     0.03300
H1623       H  0.92880622  0.20632326  0.69061080     0.17100
H1624       H  0.87278061  0.17928481  0.71951559     0.17100
N1625       N  0.72063474  0.17025447  0.52287916     0.00800
C1626       C  0.69909443  0.14054768  0.53596693     0.03400
C1627       C  0.71127490  0.11711250  0.53428787    -0.19500
C1628       C  0.74038969  0.13228846  0.51905899    -0.19700
C1629       C  0.74511646  0.16452228  0.51184044     0.03300
H1630       H  0.69757687  0.08992137  0.54030201     0.17100
H1631       H  0.75339176  0.11905981  0.51116920     0.17100
N1632       N  0.74071023  0.26766280  0.54245885     0.00800
C1633       C  0.76324792  0.29779152  0.53019118     0.03400
C1634       C  0.75166649  0.32168752  0.53208123    -0.19500
C1635       C  0.72184806  0.30629955  0.54659416    -0.19700
C1636       C  0.71611401  0.27347376  0.55317159     0.03300
H1637       H  0.76607318  0.34912811  0.52671008     0.17100
H1638       H  0.70897222  0.31962183  0.55454215     0.17100
N1639       N  0.72115824  0.00659928  0.02370337     0.00800
C1640       C  0.69950291  0.51425362  0.03703546     0.03400
C1641       C  0.71187162  0.05000590  0.03619647    -0.19500
C1642       C  0.74111349  0.06448259  0.02105243    -0.19700
C1643       C  0.74577348  0.03717300  0.01314948     0.03300
H1644       H  0.69818510  0.06330930  0.04262636     0.17100
H1645       H  0.75423810  0.09102329  0.01368048     0.17100
N1646       N  0.74036956  0.42844069  0.04266461     0.00800
C1647       C  0.76202197  0.42029430  0.02968586     0.03400
C1648       C  0.74885522  0.38444024  0.03036868    -0.19500
C1649       C  0.71906623  0.37028662  0.04492259    -0.19700
C1650       C  0.71491130  0.39789342  0.05281072     0.03300
H1651       H  0.76221850  0.37069528  0.02421242     0.17100
H1652       H  0.70523957  0.34364650  0.05209606     0.17100
N1653       N  0.57433034  0.09676180  0.37645680     0.00800
C1654       C  0.59612688  0.08876437  0.36356484     0.03400
C1655       C  0.58436993  0.05324789  0.36556929    -0.19500
C1656       C  0.55523319  0.03918752  0.38075954    -0.19700
C1657       C  0.55007057  0.06652331  0.38764552     0.03300
H1658       H  0.59836101  0.03996996  0.35978751     0.17100
H1659       H  0.54250179  0.01306009  0.38885558     0.17100
N1660       N  0.55380724  0.17402989  0.35738958     0.00800
C1661       C  0.53084429  0.18111988  0.36954291     0.03400
C1662       C  0.54153919  0.21637053  0.36720997    -0.19500
C1663       C  0.57117914  0.23114255  0.35251455    -0.19700
C1664       C  0.57778961  0.20450829  0.34633512     0.03300
H1665       H  0.02652911  0.22885706  0.37236169     0.17100
H1666       H  0.58341177  0.25716947  0.34427438     0.17100
N1667       N  0.90893489  0.10049158  0.20920572     0.00800
C1668       C  0.88452764  0.10679258  0.21972470     0.03400
C1669       C  0.88936431  0.13875399  0.21161752    -0.19500
C1670       C  0.91849647  0.15320924  0.19639746    -0.19700
C1671       C  0.93065069  0.12969957  0.19574431     0.03300
H1672       H  0.87642467  0.15238329  0.21888837     0.17100
H1673       H  0.93234336  0.18017195  0.18986683     0.17100
N1674       N  0.88782927  0.50267838  0.18954774     0.00800
C1675       C  0.86653848  0.47327020  0.20303014     0.03400
C1676       C  0.87932208  0.45027687  0.20222797    -0.19500
C1677       C  0.90843880  0.46525598  0.18699909    -0.19700
C1678       C  0.91265329  0.49700765  0.17899874     0.03300
H1679       H  0.86597929  0.42332153  0.20876748     0.17100
H1680       H  0.92180446  0.45208665  0.17965306     0.17100
N1681       N  0.77520167  0.33563127  0.35815217     0.00800
C1682       C  0.76783390  0.30638621  0.37152066     0.03400
C1683       C  0.73214712  0.28282401  0.37083333    -0.19500
C1684       C  0.71738273  0.29733390  0.35573752    -0.19700
C1685       C  0.74447889  0.32935346  0.34766416     0.03300
H1686       H  0.71908094  0.25578373  0.37718914     0.17100
H1687       H  0.69082932  0.28362513  0.34839403     0.17100
N1688       N  0.85229381  0.43356177  0.37700468     0.00800
C1689       C  0.86000287  0.46320027  0.36399779     0.03400
C1690       C  0.89564806  0.48679130  0.36523140    -0.19500
C1691       C  0.91011579  0.47180469  0.38012110    -0.19700
C1692       C  0.88288869  0.43947460  0.38749816     0.03300
H1693       H  0.90893466  0.01397654  0.35913008     0.17100
H1694       H  0.93660320  0.48512308  0.38759824     0.17100
N1695       N  0.68425597  0.09768497  0.70896544     0.00800
C1696       C  0.69244799  0.12725444  0.69565972     0.03400
C1697       C  0.72829497  0.15007021  0.69645965    -0.19500
C1698       C  0.74236668  0.13475129  0.71141615    -0.19700
C1699       C  0.71473395  0.10302386  0.71934890     0.03300
H1700       H  0.74203641  0.17713015  0.69015370     0.17100
H1701       H  0.76893043  0.14773597  0.71874685     0.17100
N1702       N  0.60641494  0.49988792  0.69076349     0.00800
C1703       C  0.59918495  0.47026692  0.70359952     0.03400
C1704       C  0.56375564  0.44598900  0.70183413    -0.19500
C1705       C  0.54904391  0.46052324  0.68671310    -0.19700
C1706       C  0.57588559  0.49334940  0.67982626     0.03300
H1707       H  0.55098832  0.41875353  0.70770649     0.17100
H1708       H  0.52280441  0.44671293  0.67881776     0.17100
N1709       N  0.77784492  0.00635324  0.52339432     0.00800
C1710       C  0.80737943  0.01447897  0.53675124     0.03400
C1711       C  0.83009974  0.05033968  0.53614320    -0.19500
C1712       C  0.81486249  0.06447339  0.52114698    -0.19700
C1713       C  0.78319280  0.03687843  0.51305413     0.03300
H1714       H  0.85710818  0.06407114  0.54256855     0.17100
H1715       H  0.82789757  0.09108303  0.51391119     0.17100
N1716       N  0.68042622  0.42883556  0.54263090     0.00800
C1717       C  0.65103923  0.42116212  0.52935980     0.03400
C1718       C  0.62754170  0.38547815  0.53030766    -0.19500
C1719       C  0.64230547  0.37099731  0.54543411    -0.19700
C1720       C  0.67443333  0.39825767  0.55316907     0.03300
H1721       H  0.60051394  0.37221546  0.52391585     0.17100
H1722       H  0.62888402  0.34447230  0.55283084     0.17100
N1723       N  0.84830566  0.26153918  0.20871186     0.00800
C1724       C  0.81850402  0.25458666  0.19625888     0.03400
C1725       C  0.79402974  0.21922315  0.19804458    -0.19500
C1726       C  0.80870662  0.20424443  0.21272976    -0.19700
C1727       C  0.84171332  0.23090239  0.21949407     0.03300
H1728       H  0.76662930  0.20671009  0.19260409     0.17100
H1729       H  0.79477672  0.17805249  0.22069551     0.17100
N1730       N  0.94632961  0.33871029  0.18990963     0.00800
C1731       C  0.97621867  0.34660203  0.20264759     0.03400
C1732       C  0.50005216  0.38201358  0.20058351    -0.19500
C1733       C  0.98504687  0.39619297  0.18541288    -0.19700
C1734       C  0.95238599  0.36892541  0.17868468     0.03300
H1735       H  0.52740057  0.39519392  0.20622001     0.17100
H1736       H  0.49847982  0.42220152  0.17725354     0.17100
N1737       N  0.94088245  0.16605348  0.02287305     0.00800
C1738       C  0.93331056  0.13597935  0.03517886     0.03400
C1739       C  0.89787354  0.11188838  0.03314287    -0.19500
C1740       C  0.88343256  0.12710553  0.01847674    -0.19700
C1741       C  0.91050108  0.15998444  0.01191284     0.03300
H1742       H  0.88492338  0.08444768  0.03850988     0.17100
H1743       H  0.85729333  0.11361622  0.01039186     0.17100
N1744       N  0.51759255  0.26335788  0.04360108     0.00800
C1745       C  0.52600949  0.29315254  0.03052531     0.03400
C1746       C  0.56173303  0.31627271  0.03200312    -0.19500
C1747       C  0.57555087  0.30084562  0.04705993    -0.19700
C1748       C  0.54785212  0.26882312  0.05447357     0.03300
H1749       H  0.57543221  0.34348314  0.02603015     0.17100
H1750       H  0.60186281  0.31391187  0.05485444     0.17100
N1751       N  0.61055885  0.16933408  0.85503393     0.00800
C1752       C  0.64028723  0.17731996  0.86805103     0.03400
C1753       C  0.66353830  0.21304031  0.86694398    -0.19500
C1754       C  0.64824403  0.22730794  0.85217689    -0.19700
C1755       C  0.61611145  0.19988453  0.84466818     0.03300
H1756       H  0.69068511  0.22652230  0.87306585     0.17100
H1757       H  0.66131570  0.25383727  0.84478889     0.17100
N1758       N  0.51284112  0.09289313  0.87489533     0.00800
C1759       C  0.98328293  0.08543742  0.86188977     0.03400
C1760       C  0.95908953  0.05001438  0.86370470    -0.19500
C1761       C  0.97360850  0.03550851  0.87903382    -0.19700
C1762       C  0.00629213  0.06246891  0.88607315     0.03300
H1763       H  0.93190716  0.03711058  0.85768131     0.17100
H1764       H  0.95983540  0.00928997  0.88695051     0.17100
O1765       O  0.87221792  0.12900338  0.79903478    -0.75900
O1766       O  0.70551307  0.04627338  0.88027269    -0.77400
O1767       O  0.79211429  0.02471977  0.84981422    -0.74400
O1768       O  0.75050081  0.07410600  0.79883638    -0.72800
O1769       O  0.75015324  0.12609088  0.79970799    -0.74600
O1770       O  0.82631625  0.04140083  0.88538727    -0.75500
O1771       O  0.72218489  0.02905628  0.84457659    -0.76900
O1772       O  0.82023455  0.07657859  0.79954896    -0.77200
Eu1773     Eu  0.78380115  0.07405227  0.83607058     2.39200
O1774       O  0.75455489  0.10355979  0.85081552    -0.84700
O1775       O  0.84231669  0.10336654  0.85065816    -0.88300
C1776       C  0.85019769  0.09879271  0.78969309     1.06400
C1777       C  0.69951427  0.02507071  0.86160102     1.06200
C1778       C  0.80780010  0.01882258  0.86822790     1.06200
C1779       C  0.74236466  0.09625068  0.78963338     1.04000
H1780       H  0.77088509  0.05014739  0.88677115     0.33800
O1781       O  0.78344484  0.07395062  0.88059144    -0.97100
H1782       H  0.81319615  0.13305312  0.80384596     0.33800
O1783       O  0.81317522  0.13288201  0.82204092    -0.99600
O1784       O  0.75551142  0.13670020  0.93303820    -0.76800
O1785       O  0.92131962  0.21959976  0.84998869    -0.76400
O1786       O  0.80909136  0.07074035  0.93292116    -0.74800
O1787       O  0.72617226  0.15317766  0.85023167    -0.78100
O1788       O  0.81710238  0.19703657  0.79960576    -0.76000
O1789       O  0.89964466  0.11143988  0.88007901    -0.74600
O1790       O  0.87604316  0.19046849  0.93277560    -0.76200
O1791       O  0.83465441  0.23996228  0.88134783    -0.78100
O1792       O  0.87618458  0.13837113  0.93190972    -0.74800
O1793       O  0.79929331  0.22303391  0.84636304    -0.77500
O1794       O  0.75660265  0.07014973  0.93224263    -0.73200
O1795       O  0.91701350  0.14591076  0.84462836    -0.73300
O1796       O  0.86897612  0.19645184  0.79977730    -0.72900
O1797       O  0.70886527  0.11923936  0.88591355    -0.76400
O1798       O  0.80776065  0.18886871  0.93238725    -0.75800
O1799       O  0.90488337  0.23665409  0.88586233    -0.74200
Eu1800     Eu  0.75441503  0.10343214  0.89526860     2.39800
Eu1801     Eu  0.87188170  0.16222912  0.83610637     2.39600
Eu1802     Eu  0.84232815  0.10269061  0.89508391     2.38400
Eu1803     Eu  0.78393927  0.16219752  0.83644039     2.39900
Eu1804     Eu  0.84336171  0.19122546  0.89541257     2.39800
O1805       O  0.84283580  0.19146414  0.85099272    -0.88600
O1806       O  0.81330293  0.13233721  0.90882824    -0.87500
C1807       C  0.77790914  0.16681032  0.94244400     1.06600
C1808       C  0.92741398  0.24091398  0.86859020     1.05300
C1809       C  0.77898270  0.06288248  0.94237016     1.04700
C1810       C  0.70467300  0.13758120  0.86867563     1.06700
C1811       C  0.84720230  0.20496915  0.79015034     1.05600
C1812       C  0.92099637  0.12709597  0.86154575     1.04500
C1813       C  0.88397470  0.16820033  0.94199615     1.04500
C1814       C  0.81838781  0.24566311  0.86328357     1.07100
H1815       H  0.89581583  0.17246226  0.88675452     0.34500
O1816       O  0.87199956  0.16129088  0.88060174    -1.00700
H1817       H  0.77347158  0.17477505  0.88722779     0.36600
O1818       O  0.78470514  0.16229088  0.88091581    -1.03300
O1819       O  0.91774251  0.46129736  0.96601843    -0.75900
O1820       O  0.50262936  0.37971750  0.04861797    -0.77400
O1821       O  0.98517178  0.40938169  0.96517433    -0.74400
O1822       O  0.89512102  0.35836672  0.01822837    -0.72800
O1823       O  0.87755329  0.37523121  0.05366476    -0.74600
O1824       O  0.53759387  0.46136450  0.96598564    -0.75500
O1825       O  0.96855608  0.36231941  0.01295050    -0.76900
O1826       O  0.91786069  0.40918663  0.96684456    -0.77200
Eu1827     Eu  0.95224427  0.40742900  0.00333432     2.39200
O1828       O  0.95240509  0.40787377  0.04774203    -0.84700
O1829       O  0.98099572  0.46621834  0.98978284    -0.88300
C1830       C  0.90985682  0.43110319  0.95682427     1.06400
C1831       C  0.48700933  0.35819038  0.03016794     1.06200
C1832       C  0.51520646  0.43179111  0.95574093     1.06200
C1833       C  0.87367636  0.35252762  0.03671747     1.04000
H1834       H  0.52382798  0.42676968  0.01142714     0.33800
O1835       O  0.51121112  0.43788848  0.01770356    -0.97100
H1836       H  0.89845998  0.42322509  0.01181219     0.33800
O1837       O  0.92228608  0.43596256  0.01793832    -0.99600
O1838       O  0.54446950  0.47086207  0.09947384    -0.76800
O1839       O  0.95905886  0.05192470  0.01749103    -0.76400
O1840       O  0.58914210  0.48859675  0.01791476    -0.74800
O1841       O  0.92233186  0.40297015  0.09931647    -0.78100
O1842       O  0.87282822  0.44441835  0.04850059    -0.76000
O1843       O  0.53839266  0.02847479  0.96539958    -0.74600
O1844       O  0.56759775  0.07430416  0.04866216    -0.76200
O1845       O  0.97691939  0.52591147  0.09923241    -0.78100
O1846       O  0.58471399  0.05824772  0.01263627    -0.74800
O1847       O  0.92516767  0.47327904  0.09902591    -0.77500
O1848       O  0.57244697  0.45392023  0.05324771    -0.73200
O1849       O  0.98604201  0.02806602  0.96623505    -0.73300
O1850       O  0.88922173  0.47850533  0.01290113    -0.72900
O1851       O  0.97475023  0.40344109  0.09880728    -0.76400
O1852       O  0.54447881  0.02300387  0.09881720    -0.75800
O1853       O  0.99429955  0.07030759  0.05253266    -0.74200
Eu1854     Eu  0.51100905  0.43741527  0.06223614     2.39800
Eu1855     Eu  0.95068490  0.49468181  0.00328546     2.39600
Eu1856     Eu  0.53992716  0.49654847  0.00319245     2.38400
Eu1857     Eu  0.92246741  0.43670503  0.06241454     2.39900
Eu1858     Eu  0.01019737  0.02506207  0.06224683     2.39800
O1859       O  0.95131671  0.49507610  0.04768782    -0.88600
O1860       O  0.53997952  0.49629700  0.04765298    -0.87500
C1861       C  0.55251906  0.00105484  0.10877125     1.06600
C1862       C  0.97515418  0.07381487  0.03562118     1.05300
C1863       C  0.59511872  0.47297751  0.03633097     1.04700
C1864       C  0.94465721  0.39520714  0.10864555     1.06700
C1865       C  0.86668059  0.45988242  0.03006968     1.05600
C1866       C  0.01583632  0.03594368  0.95605919     1.04500
C1867       C  0.58890074  0.08055129  0.03005281     1.04500
C1868       C  0.94693081  0.50352725  0.10874060     1.07100
H1869       H  0.02041695  0.04849243  0.01148614     0.34500
O1870       O  0.00937719  0.02473998  0.01774725    -1.00700
H1871       H  0.98134137  0.46643818  0.09458369     0.36600
O1872       O  0.98126928  0.46637194  0.07638893    -1.03300
O1873       O  0.87737734  0.13838336  0.43274673    -0.75900
O1874       O  0.79290173  0.22144756  0.35130476    -0.77400
O1875       O  0.90091095  0.24321800  0.38198640    -0.74400
O1876       O  0.80972362  0.19427639  0.43254424    -0.72800
O1877       O  0.75741844  0.14218495  0.43177372    -0.74600
O1878       O  0.91846657  0.22653168  0.34647734    -0.75500
O1879       O  0.82732342  0.23898377  0.38678766    -0.76900
O1880       O  0.87710638  0.19042274  0.43225742    -0.77200
Eu1881     Eu  0.84339246  0.19377623  0.39570870     2.39200
O1882       O  0.78462986  0.16425481  0.38085472    -0.84700
O1883       O  0.87259650  0.16444602  0.38132318    -0.88300
C1884       C  0.88526798  0.16848687  0.44209260     1.06400
C1885       C  0.80853466  0.24289247  0.36981115     1.06200
C1886       C  0.92245182  0.24920943  0.36355331     1.06200
C1887       C  0.77940558  0.17214877  0.44172239     1.04000
H1888       H  0.85416948  0.21740605  0.34493084     0.33800
O1889       O  0.84289764  0.19363637  0.35117731    -0.97100
H1890       H  0.81378949  0.13510873  0.42804181     0.33800
O1891       O  0.81388902  0.13508155  0.40984680    -0.99600
O1892       O  0.75246166  0.13050445  0.29864246    -0.76800
O1893       O  0.83448748  0.04790925  0.38209782    -0.76400
O1894       O  0.87195887  0.19669394  0.29905585    -0.74800
O1895       O  0.70615312  0.11401004  0.38117932    -0.78100
O1896       O  0.75486226  0.07239541  0.43291777    -0.76000
O1897       O  0.92157300  0.15599815  0.35170298    -0.74600
O1898       O  0.81938411  0.07753165  0.29924273    -0.76200
O1899       O  0.72782698  0.02744637  0.35127278    -0.78100
O1900       O  0.87174600  0.12957261  0.30018556    -0.74800
O1901       O  0.71027476  0.04426872  0.38673604    -0.77500
O1902       O  0.82006637  0.19729540  0.29955300    -0.73200
O1903       O  0.90415337  0.12071179  0.38671765    -0.73300
O1904       O  0.80669413  0.07174205  0.43251874    -0.72900
O1905       O  0.72278700  0.14784033  0.34543413    -0.76400
O1906       O  0.75220335  0.07818766  0.29950704    -0.75800
O1907       O  0.80107621  0.03077626  0.34616180    -0.74200
Eu1908     Eu  0.78434552  0.16406316  0.33642507     2.39800
Eu1909     Eu  0.84311943  0.10551344  0.39585587     2.39600
Eu1910     Eu  0.87311312  0.16496170  0.33693201     2.38400
Eu1911     Eu  0.75528836  0.10571975  0.39543760     2.39900
Eu1912     Eu  0.78530133  0.07621510  0.33662121     2.39800
O1913       O  0.78472887  0.07624751  0.38106511    -0.88600
O1914       O  0.81432645  0.13509592  0.32319290    -0.87500
C1915       C  0.74474845  0.10037956  0.28930517     1.06600
C1916       C  0.81924614  0.02656705  0.36351500     1.05300
C1917       C  0.84981092  0.20462686  0.28957042     1.04700
C1918       C  0.70019623  0.12941939  0.36261658     1.06700
C1919       C  0.77681279  0.06417500  0.44242021     1.05600
C1920       C  0.92703440  0.13970597  0.36989434     1.04500
C1921       C  0.84969434  0.09980504  0.29004387     1.04500
C1922       C  0.70640320  0.02157534  0.36977803     1.07100
H1923       H  0.85652695  0.09508217  0.34527694     0.34500
O1924       O  0.84394694  0.10631152  0.35140584    -1.00700
H1925       H  0.73193758  0.09264857  0.34464244     0.36600
O1926       O  0.75568254  0.10525743  0.35093973    -1.03300
O1927       O  0.73365242  0.40796999  0.71519387    -0.75900
O1928       O  0.65085154  0.24222375  0.63229653    -0.77400
O1929       O  0.75414464  0.32141030  0.68439761    -0.74400
O1930       O  0.70457436  0.36324158  0.63257345    -0.72800
O1931       O  0.65246979  0.36341097  0.63334079    -0.74600
O1932       O  0.73738131  0.28752515  0.72014514    -0.75500
O1933       O  0.70304780  0.29445557  0.63291897    -0.76900
O1934       O  0.75112664  0.39131637  0.67961769    -0.77200
Eu1935     Eu  0.70547121  0.33016385  0.66985859     2.39200
O1936       O  0.64665730  0.30033847  0.65627245    -0.84700
O1937       O  0.70516050  0.32952256  0.71430063    -0.88300
C1938       C  0.75522179  0.41388181  0.69678295     1.06400
C1939       C  0.68092628  0.26457905  0.62291638     1.06200
C1940       C  0.76001818  0.30611547  0.70307468     1.06200
C1941       C  0.68230782  0.37119093  0.62328905     1.04000
H1942       H  0.68915919  0.26044737  0.67815486     0.33800
O1943       O  0.67654368  0.27157887  0.68440210    -0.97100
H1944       H  0.68673538  0.38266231  0.67845837     0.33800
O1945       O  0.67549161  0.35883738  0.68459340    -0.99600
O1946       O  0.56034178  0.19286903  0.68452970    -0.76800
O1947       O  0.64344597  0.35925285  0.76649375    -0.76400
O1948       O  0.66826418  0.21352340  0.71472286    -0.74800
O1949       O  0.58515442  0.29609669  0.63223426    -0.78100
O1950       O  0.62520630  0.38652502  0.68500983    -0.76000
O1951       O  0.70971316  0.30414739  0.76592504    -0.74600
O1952       O  0.58618704  0.23616579  0.76577539    -0.76200
O1953       O  0.53884825  0.27962072  0.71534853    -0.78100
O1954       O  0.63854217  0.23651301  0.76524806    -0.74800
O1955       O  0.55542844  0.31318336  0.67948684    -0.77500
O1956       O  0.63416653  0.19618590  0.67911377    -0.73200
O1957       O  0.71001661  0.35646667  0.76559854    -0.73300
O1958       O  0.65956871  0.40382668  0.72049361    -0.72900
O1959       O  0.58456128  0.24361698  0.63288568    -0.76400
O1960       O  0.54195749  0.20995595  0.71943519    -0.75800
O1961       O  0.59095293  0.30738315  0.76568953    -0.74200
Eu1962     Eu  0.61778490  0.24145257  0.66987962     2.39800
Eu1963     Eu  0.67602210  0.35876056  0.72906719     2.39600
Eu1964     Eu  0.67584211  0.27068507  0.72890115     2.38400
Eu1965     Eu  0.61690029  0.32934396  0.67007438     2.39900
Eu1966     Eu  0.58779973  0.27082091  0.72894349     2.39800
O1967       O  0.61709109  0.32941537  0.71452966    -0.88600
O1968       O  0.61737945  0.24154841  0.71427636    -0.87500
C1969       C  0.53841127  0.18721033  0.70262511     1.06600
C1970       C  0.61316799  0.33720648  0.77574861     1.05300
C1971       C  0.65282587  0.19212676  0.69618034     1.04700
C1972       C  0.57722824  0.26597098  0.62280592     1.06700
C1973       C  0.64079128  0.40785698  0.70356426     1.05600
C1974       C  0.71792230  0.33432662  0.77534404     1.04500
C1975       C  0.60838370  0.22817499  0.77506679     1.04500
C1976       C  0.53289984  0.29499388  0.69677802     1.07100
H1977       H  0.64651811  0.29981631  0.76128563     0.34500
O1978       O  0.64651844  0.29994895  0.74309179    -1.00700
H1979       H  0.56448445  0.25799171  0.67816753     0.36600
O1980       O  0.58824023  0.27048529  0.68444586    -1.03300
O1981       O  0.70814688  0.29704133  0.13379565    -0.75900
O1982       O  0.54054486  0.21463603  0.21571875    -0.77400
O1983       O  0.62638836  0.19257100  0.18483727    -0.74400
O1984       O  0.58400830  0.24135021  0.13405317    -0.72800
O1985       O  0.58384154  0.29343336  0.13437963    -0.74600
O1986       O  0.66091908  0.20937749  0.22023105    -0.75500
O1987       O  0.55730072  0.19721625  0.18013880    -0.76900
O1988       O  0.65561091  0.24517526  0.13432980    -0.77200
Eu1989     Eu  0.61857883  0.24206117  0.17082310     2.39200
O1990       O  0.58949227  0.27169933  0.18550295    -0.84700
O1991       O  0.67713260  0.27138486  0.18528582    -0.88300
C1992       C  0.68579872  0.26691031  0.12449458     1.06400
C1993       C  0.53470732  0.19324854  0.19720311     1.06200
C1994       C  0.64208546  0.18664996  0.20321710     1.06200
C1995       C  0.57565988  0.26327313  0.12470587     1.04000
H1996       H  0.60565750  0.21864070  0.22162014     0.33800
O1997       O  0.61823678  0.24238731  0.21533438    -0.97100
H1998       H  0.64769873  0.30037428  0.13830351     0.33800
O1999       O  0.64786921  0.30060794  0.15649788    -0.99600
O2000       O  0.59069581  0.30604804  0.26729874    -0.76800
O2001       O  0.75590974  0.38768984  0.18437229    -0.76400
O2002       O  0.64407656  0.23860523  0.26738080    -0.74800
O2003       O  0.56108273  0.32163032  0.18448630    -0.78100
O2004       O  0.65108268  0.36262712  0.13285007    -0.76000
O2005       O  0.73447771  0.27986051  0.21491173    -0.74600
O2006       O  0.70984105  0.35808035  0.26738885    -0.76200
O2007       O  0.66984023  0.40880413  0.21436247    -0.78100
O2008       O  0.71056843  0.30626202  0.26665169    -0.74800
O2009       O  0.63548111  0.39178349  0.17886599    -0.77500
O2010       O  0.59214093  0.23910706  0.26694519    -0.73200
O2011       O  0.75256025  0.31529022  0.17996081    -0.73300
O2012       O  0.70366288  0.36347707  0.13353374    -0.72900
O2013       O  0.54394738  0.28786710  0.22026909    -0.76400
O2014       O  0.64287330  0.35828930  0.26648052    -0.75800
O2015       O  0.73965308  0.40478820  0.22031051    -0.74200
Eu2016     Eu  0.58945179  0.27214573  0.22993403     2.39800
Eu2017     Eu  0.70667566  0.33023452  0.17052509     2.39600
Eu2018     Eu  0.67707363  0.27092327  0.22969663     2.38400
Eu2019     Eu  0.61862145  0.33006288  0.17057665     2.39900
Eu2020     Eu  0.67805246  0.35983209  0.22952717     2.39800
O2021       O  0.67759433  0.35966471  0.18503722    -0.88600
O2022       O  0.64833300  0.30104382  0.24328755    -0.87500
C2023       C  0.61307239  0.33621888  0.27658760     1.06600
C2024       C  0.76209443  0.40894365  0.20302164     1.05300
C2025       C  0.61413507  0.23114365  0.27688080     1.04700
C2026       C  0.53968927  0.30612934  0.20301206     1.06700
C2027       C  0.68127066  0.37081429  0.12343798     1.05600
C2028       C  0.75630358  0.29619842  0.19676521     1.04500
C2029       C  0.71783807  0.33589474  0.27679365     1.04500
C2030       C  0.65438317  0.41463741  0.19574292     1.07100
H2031       H  0.73022998  0.34068382  0.22125523     0.34500
O2032       O  0.70645347  0.32947869  0.21502592    -1.00700
H2033       H  0.60822289  0.34342957  0.22127008     0.36600
O2034       O  0.61938884  0.33080585  0.21509975    -1.03300
O2035       O  0.92278063  0.47273438  0.60035715    -0.75900
O2036       O  0.58890546  0.05535926  0.51810950    -0.77400
O2037       O  0.54234578  0.02599112  0.60081330    -0.74400
O2038       O  0.50217112  0.07624186  0.54801510    -0.72800
O2039       O  0.96772852  0.05936311  0.51252608    -0.74600
O2040       O  0.54240685  0.47386621  0.59986108    -0.75500
O2041       O  0.57221161  0.07278294  0.55369227    -0.76900
O2042       O  0.97490287  0.02505917  0.59984487    -0.77200
Eu2043     Eu  0.51063961  0.02746341  0.56298547     2.39200
O2044       O  0.51037664  0.02715456  0.51859391    -0.84700
O2045       O  0.98050308  0.46853197  0.57633351    -0.88300
C2046       C  0.94509630  0.00274812  0.60982939     1.06400
C2047       C  0.59485148  0.07684400  0.53658248     1.06200
C2048       C  0.54998462  0.50354516  0.61007332     1.06200
C2049       C  0.48654151  0.08203717  0.52950842     1.04000
H2050       H  0.56284807  0.50822015  0.55492956     0.33800
O2051       O  0.53910930  0.49710198  0.54861900    -0.97100
H2052       H  0.94096225  0.01132512  0.55446842     0.33800
O2053       O  0.95212537  0.99871578  0.54826950    -0.99600
O2054       O  0.53993334  0.46443030  0.46696453    -0.76800
O2055       O  0.87303963  0.38257296  0.54797953    -0.76400
O2056       O  0.56658774  0.44676676  0.54849081    -0.74800
O2057       O  0.48527302  0.03203083  0.46689089    -0.78100
O2058       O  0.89406241  0.99025944  0.51762081    -0.76000
O2059       O  0.97535811  0.40577059  0.60031249    -0.74600
O2060       O  0.95959534  0.36071683  0.51728547    -0.76200
O2061       O  0.91784117  0.40903639  0.46667650    -0.78100
O2062       O  0.99296356  0.37691177  0.55322853    -0.74800
O2063       O  0.91815672  0.46136257  0.46710589    -0.77500
O2064       O  0.58453867  0.48147568  0.51317769    -0.73200
O2065       O  0.92336670  0.40615153  0.59950040    -0.73300
O2066       O  0.87653391  0.45630621  0.55329206    -0.72900
O2067       O  0.53721283  0.03155064  0.46752667    -0.76400
O2068       O  0.98789490  0.41208542  0.46742038    -0.75800
O2069       O  0.89018057  0.36435421  0.51303226    -0.74200
Eu2070     Eu  0.53959188  0.49782494  0.50414083     2.36200
Eu2071     Eu  0.92173015  0.43985706  0.56262238     2.39600
Eu2072     Eu  0.00918805  0.43834714  0.56290964     2.38400
Eu2073     Eu  0.95157150  0.99810723  0.50377317     2.39900
Eu2074     Eu  0.95139655  0.40996445  0.50381927     2.39800
O2075       O  0.92209468  0.43961051  0.51823152    -0.88600
O2076       O  0.00985786  0.43886724  0.51851221    -0.87500
C2077       C  0.01790930  0.43419427  0.45757952     1.06600
C2078       C  0.86737358  0.36070774  0.52984885     1.05300
C2079       C  0.58818621  0.46247225  0.53010242     1.04700
C2080       C  0.51540855  0.03978989  0.45761592     1.06700
C2081       C  0.87254795  0.97491431  0.53613429     1.05600
C2082       C  0.94525752  0.39819715  0.60960544     1.04500
C2083       C  0.97477999  0.35454344  0.53585090     1.04500
C2084       C  0.91010834  0.43131629  0.45725250     1.07100
H2085       H  0.93781514  0.38617231  0.55440701     0.34500
O2086       O  0.95050409  0.40998099  0.54824913    -1.00700
H2087       H  0.98113598  0.46878268  0.47161331     0.36600
O2088       O  0.98098197  0.46875419  0.48980627    -1.03300
C2089       C  0.02097969  0.06049542  0.91001182    -0.09000
C2090       C  0.02296016  0.05229733  0.93149102    -0.10600
C2091       C  0.97037339  0.10971941  0.85861305    -0.09000
C2092       C  0.95059480  0.12144365  0.85908047    -0.10600
C2093       C  0.60044176  0.21087226  0.79926932    -0.09000
C2094       C  0.60178616  0.20213466  0.82068443    -0.10600
C2095       C  0.65433667  0.15387903  0.87095894    -0.09000
C2096       C  0.67471737  0.14282898  0.87067095    -0.10600
C2097       C  0.57657574  0.14181972  0.86161793    -0.09000
C2098       C  0.54706428  0.11983263  0.86821321    -0.10600
C2099       C  0.55814349  0.25488378  0.10056780    -0.09000
C2100       C  0.54945844  0.25536711  0.07898542    -0.10600
C2101       C  0.50288062  0.30754383  0.02757602    -0.09000
C2102       C  0.49215698  0.32817994  0.02806438    -0.10600
C2103       C  0.96950056  0.10342524  0.03766736    -0.09000
C2104       C  0.95762325  0.12306293  0.03809072    -0.10600
C2105       C  0.90072996  0.17586659  0.96635175    -0.09000
C2106       C  0.90891278  0.17453188  0.98790464    -0.10600
C2107       C  0.96807289  0.20005714  0.02985507    -0.09000
C2108       C  0.99017337  0.22944065  0.03668706    -0.10600
C2109       C  0.48961886  0.32266421  0.20570193    -0.09000
C2110       C  0.50981637  0.31143056  0.20518277    -0.10600
C2111       C  0.93799747  0.37027694  0.15455427    -0.09000
C2112       C  0.93683984  0.37839136  0.13295921    -0.10600
C2113       C  0.85750047  0.22087402  0.26504476    -0.09000
C2114       C  0.85609599  0.22886257  0.24345458    -0.10600
C2115       C  0.80589165  0.27918786  0.19373617    -0.09000
C2116       C  0.78612363  0.29089899  0.19449862    -0.10600
C2117       C  0.91222196  0.31125232  0.19640500    -0.09000
C2118       C  0.88257630  0.28901371  0.20261164    -0.10600
C2119       C  0.68986938  0.38786065  0.59886489    -0.09000
C2120       C  0.68839709  0.39607909  0.57732423    -0.10600
C2121       C  0.63737984  0.44489528  0.52682350    -0.09000
C2122       C  0.61760188  0.45657604  0.52769221    -0.10600
C2123       C  0.76983368  0.03916295  0.48858191    -0.09000
C2124       C  0.76889790  0.04757544  0.46695338    -0.10600
C2125       C  0.84281327  0.98066223  0.53834231    -0.09000
C2126       C  0.82227264  0.99158203  0.53903858    -0.10600
C2127       C  0.74394091  0.47873915  0.52987692    -0.09000
C2128       C  0.71450729  0.45636213  0.53630777    -0.10600
C2129       C  0.63518364  0.43752053  0.70601947    -0.09000
C2130       C  0.62356435  0.45740227  0.70658731    -0.10600
C2131       C  0.57390121  0.50835391  0.65612188    -0.09000
C2132       C  0.56607013  0.51059143  0.63464013    -0.10600
C2133       C  0.66947812  0.14196811  0.69318403    -0.09000
C2134       C  0.65850768  0.16242849  0.69385916    -0.10600
C2135       C  0.71690892  0.08951631  0.74372631    -0.09000
C2136       C  0.72549452  0.08854286  0.76526428    -0.10600
C2137       C  0.63390088  0.03410696  0.69673383    -0.09000
C2138       C  0.65633833  0.06372008  0.70277384    -0.10600
C2139       C  0.82481774  0.99686023  0.36142242    -0.09000
C2140       C  0.83624332  0.97681318  0.36102942    -0.10600
C2141       C  0.88511702  0.42501097  0.41138868    -0.09000
C2142       C  0.89346386  0.42354390  0.43286947    -0.10600
C2143       C  0.79149902  0.29252918  0.37347942    -0.09000
C2144       C  0.80287181  0.27248729  0.37230724    -0.10600
C2145       C  0.74211014  0.34229699  0.32309771    -0.09000
C2146       C  0.73403792  0.34335824  0.30142116    -0.10600
C2147       C  0.80252169  0.36987962  0.36440367    -0.09000
C2148       C  0.82473879  0.39946684  0.37068693    -0.10600
C2149       C  0.92828600  0.51046810  0.15460046    -0.09000
C2150       C  0.93781726  0.51144455  0.13305622    -0.10600
C2151       C  0.79748306  0.43855225  0.20521792    -0.09000
C2152       C  0.82894791  0.45882227  0.20573602    -0.10600
C2153       C  0.86878560  0.09354932  0.24413921    -0.09000
C2154       C  0.85902398  0.09230908  0.26565386    -0.10600
C2155       C  0.96813169  0.14358923  0.19365351    -0.09000
C2156       C  0.49950971  0.16364445  0.19476630    -0.10600
C2157       C  0.90180336  0.06626831  0.20264526    -0.09000
C2158       C  0.89443363  0.03677625  0.19607644    -0.10600
C2159       C  0.99364005  0.15640977  0.37254158    -0.09000
C2160       C  0.96213644  0.14483024  0.37208904    -0.10600
C2161       C  0.60516088  0.21463172  0.30133211    -0.09000
C2162       C  0.59504349  0.20640923  0.32277458    -0.10600
C2163       C  0.53424354  0.06502656  0.41178438    -0.09000
C2164       C  0.52465254  0.05670092  0.43331650    -0.10600
C2165       C  0.63343814  0.11258761  0.36015426    -0.09000
C2166       C  0.66491742  0.12391707  0.36042499    -0.10600
C2167       C  0.56781611  0.12430763  0.37001377    -0.09000
C2168       C  0.56051465  0.14657672  0.36371607    -0.10600
C2169       C  0.79979184  0.44330155  0.02737354    -0.09000
C2170       C  0.83125606  0.45424658  0.02798347    -0.10600
C2171       C  0.68988299  0.38719723  0.09884122    -0.09000
C2172       C  0.69913960  0.39558351  0.07720545    -0.10600
C2173       C  0.76130161  0.03923819  0.98875448    -0.09000
C2174       C  0.77040748  0.04696204  0.96705812    -0.10600
C2175       C  0.63052129  0.47895910  0.03872345    -0.09000
C2176       C  0.66201776  0.49059432  0.03954201    -0.10600
C2177       C  0.73443747  0.45632472  0.03612427    -0.09000
C2178       C  0.72756300  0.47887528  0.02980494    -0.10600
C2179       C  0.68980958  0.25697120  0.59849198    -0.09000
C2180       C  0.69948480  0.25855815  0.57697077    -0.10600
C2181       C  0.83211551  0.33090622  0.52775655    -0.09000
C2182       C  0.80059275  0.31099093  0.52736249    -0.10600
C2183       C  0.63019212  0.10657848  0.53881776    -0.09000
C2184       C  0.66168845  0.12670955  0.53921140    -0.10600
C2185       C  0.77021338  0.17990875  0.46601663    -0.09000
C2186       C  0.76073671  0.17864796  0.48758731    -0.10600
C2187       C  0.72713572  0.20424847  0.52943975    -0.09000
C2188       C  0.73432376  0.23370462  0.53590787    -0.10600
C2189       C  0.86630592  0.23121089  0.74452510    -0.09000
C2190       C  0.85649742  0.22243592  0.76599067    -0.10600
C2191       C  0.96625209  0.27879709  0.69403639    -0.09000
C2192       C  0.49766278  0.28966933  0.69464817    -0.10600
C2193       C  0.79533132  0.31206098  0.70563856    -0.09000
C2194       C  0.82682606  0.32389196  0.70650193    -0.10600
C2195       C  0.92628146  0.37353818  0.65561017    -0.09000
C2196       C  0.93604653  0.38170917  0.63407859    -0.10600
C2197       C  0.89332597  0.31362774  0.69702226    -0.09000
C2198       C  0.90080864  0.29155104  0.70344301    -0.10600
C2199       C  0.63247395  0.47619037  0.85838988    -0.09000
C2200       C  0.66404996  0.99574685  0.85907663    -0.10600
C2201       C  0.53296376  0.42623902  0.90929318    -0.09000
C2202       C  0.52374718  0.42470640  0.93096944    -0.10600
C2203       C  0.96279281  0.27071853  0.87076427    -0.09000
C2204       C  0.99422827  0.29129028  0.87150250    -0.10600
C2205       C  0.60414860  0.34503899  0.80011815    -0.09000
C2206       C  0.59459078  0.34416616  0.82163980    -0.10600
C2207       C  0.55942848  0.36983384  0.86241304    -0.09000
C2208       C  0.56647598  0.39938801  0.86848866    -0.10600
C2209       C  0.72869395  0.09146877  0.26468819    -0.09000
C2210       C  0.72083398  0.08171149  0.24313246    -0.10600
C2211       C  0.66027773  0.45004544  0.19314290    -0.09000
C2212       C  0.67183897  0.48156686  0.19244198    -0.10600
C2213       C  0.56965176  0.01028671  0.13309371    -0.09000
C2214       C  0.57836475  0.02001088  0.15460672    -0.10600
C2215       C  0.62539490  0.11980238  0.20576850    -0.09000
C2216       C  0.63647233  0.15127313  0.20539412    -0.10600
C2217       C  0.66071217  0.04758417  0.20232149    -0.09000
C2218       C  0.63830737  0.05470406  0.19610086    -0.10600
C2219       C  0.65717795  0.45472935  0.37308013    -0.09000
C2220       C  0.67693565  0.48623531  0.37225832    -0.10600
C2221       C  0.60559551  0.34527292  0.30103537    -0.09000
C2222       C  0.60693653  0.35488282  0.32257292    -0.10600
C2223       C  0.52510216  0.41585662  0.41158165    -0.09000
C2224       C  0.02592175  0.42522397  0.43320267    -0.10600
C2225       C  0.97252234  0.31614147  0.36077638    -0.09000
C2226       C  0.95215370  0.28465227  0.36132826    -0.10600
C2227       C  0.55079339  0.38131073  0.37007997    -0.09000
C2228       C  0.58023822  0.38845790  0.36361659    -0.10600
C2229       C  0.63907286  0.14727205  0.02803898    -0.09000
C2230       C  0.61868913  0.11584154  0.02815252    -0.10600
C2231       C  0.69218012  0.24752633  0.07881505    -0.09000
C2232       C  0.69360573  0.25753839  0.10025870    -0.10600
C2233       C  0.77202455  0.18617143  0.98834850    -0.09000
C2234       C  0.77040548  0.17601888  0.96689682    -0.10600
C2235       C  0.82376062  0.28586734  0.03962753    -0.09000
C2236       C  0.84396726  0.31729794  0.03906919    -0.10600
C2237       C  0.74639206  0.21989603  0.03038132    -0.09000
C2238       C  0.71702857  0.21270898  0.03719409    -0.10600
C2239       C  0.55276792  0.24804880  0.57663174    -0.09000
C2240       C  0.56093500  0.25727266  0.59825462    -0.10600
C2241       C  0.49214768  0.11723665  0.52706085    -0.09000
C2242       C  0.50358547  0.14865981  0.52613152    -0.10600
C2243       C  0.95807226  0.28777450  0.53816075    -0.09000
C2244       C  0.96921495  0.31922778  0.53783319    -0.10600
C2245       C  0.90213879  0.17749484  0.46640771    -0.09000
C2246       C  0.91044435  0.18719958  0.48791381    -0.10600
C2247       C  0.97052555  0.22227846  0.52882254    -0.09000
C2248       C  0.99270331  0.21492059  0.53521240    -0.10600
C2249       C  0.82379417  0.28080818  0.86125706    -0.09000
C2250       C  0.83561429  0.31230049  0.86073881    -0.10600
C2251       C  0.88497827  0.41234645  0.91097223    -0.09000
C2252       C  0.89303389  0.42190972  0.93251756    -0.10600
C2253       C  0.73499188  0.34314961  0.79961002    -0.09000
C2254       C  0.74353756  0.35227988  0.82119524    -0.10600
C2255       C  0.79157915  0.45222583  0.87123317    -0.09000
C2256       C  0.80252865  0.48362590  0.87043313    -0.10600
C2257       C  0.82560903  0.37893089  0.86938522    -0.09000
C2258       C  0.80345647  0.38623758  0.86279725    -0.10600
C2259       C  0.50878778  0.15196440  0.70487164    -0.09000
C2260       C  0.48924571  0.12044128  0.70573009    -0.10600
C2261       C  0.93908774  0.02022318  0.65609390    -0.09000
C2262       C  0.93759467  0.01118966  0.63441803    -0.10600
C2263       C  0.78508396  0.44913542  0.69458516    -0.09000
C2264       C  0.80530690  0.48059308  0.69381661    -0.10600
C2265       C  0.85719538  0.08083849  0.74375437    -0.09000
C2266       C  0.85820205  0.09005470  0.76534871    -0.10600
C2267       C  0.91255230  0.05384934  0.69669702    -0.09000
C2268       C  0.88291275  0.04661199  0.70269661    -0.10600
N2269       N  0.84888816  0.54029888  0.70895886     0.00800
C2270       C  0.81897655  0.51806284  0.69632869     0.03400
C2271       C  0.79530269  0.52996359  0.69789076    -0.19500
C2272       C  0.81056039  0.55961221  0.71257695    -0.19700
C2273       C  0.84307871  0.56492683  0.71962327     0.03300
H2274       H  0.76793910  0.01576058  0.69224549     0.17100
H2275       H  0.79721065  0.57254727  0.72037599     0.17100
N2276       N  0.94679635  0.56045187  0.69083385     0.00800
C2277       C  0.97649708  0.58317215  0.70341070     0.03400
C2278       C  0.50083907  0.57205580  0.70185377    -0.19500
C2279       C  0.98605679  0.54233978  0.68721059    -0.19700
C2280       C  0.95324029  0.53627796  0.68018388     0.03300
H2281       H  0.52818966  0.58680562  0.70743877     0.17100
H2282       H  0.49997683  0.52997876  0.67933011     0.17100
N2283       N  0.77599050  0.89271182  0.85605716     0.00800
C2284       C  0.76808326  0.91466765  0.86881138     0.03400
C2285       C  0.73240550  0.90234937  0.86748556    -0.19500
C2286       C  0.71812417  0.87269358  0.85282976    -0.19700
C2287       C  0.74550604  0.86782745  0.84552094     0.03300
H2288       H  0.71903701  0.91626024  0.87324376     0.17100
H2289       H  0.69173553  0.85950443  0.84516845     0.17100
N2290       N  0.85285045  0.87205595  0.87602354     0.00800
C2291       C  0.86012149  0.84942736  0.86364152     0.03400
C2292       C  0.89546976  0.86041982  0.86570951    -0.19500
C2293       C  0.91014900  0.89000070  0.88046611    -0.19700
C2294       C  0.88329504  0.89611351  0.88703366     0.03300
H2295       H  0.90815392  0.84569588  0.86032702     0.17100
H2296       H  0.93626069  0.90238280  0.88858125     0.17100
N2297       N  0.94297703  0.72864982  0.52227245     0.00800
C2298       C  0.93485214  0.75025821  0.53529734     0.03400
C2299       C  0.89908605  0.73756609  0.53420177    -0.19500
C2300       C  0.88495577  0.70805833  0.51937590    -0.19700
C2301       C  0.91250480  0.70358766  0.51187137     0.03300
H2302       H  0.88547297  0.75105515  0.54037339     0.17100
H2303       H  0.85842543  0.69446380  0.51198280     0.17100
N2304       N  0.52001744  0.70806205  0.54162890     0.00800
C2305       C  0.52747803  0.68601926  0.52860051     0.03400
C2306       C  0.56304090  0.69774694  0.52990377    -0.19500
C2307       C  0.57766704  0.72709578  0.54489754    -0.19700
C2308       C  0.55060210  0.73239842  0.55234396     0.03300
H2309       H  0.57602564  0.68354096  0.52394208     0.17100
H2310       H  0.60402326  0.73978447  0.55259591     0.17100
N2311       N  0.78047923  0.72675636  0.02356052     0.00800
C2312       C  0.81019691  0.74854962  0.03656724     0.03400
C2313       C  0.83400900  0.73686703  0.03474615    -0.19500
C2314       C  0.81916262  0.70789850  0.01939304    -0.19700
C2315       C  0.78663002  0.70259686  0.01237815     0.03300
H2316       H  0.86123175  0.75088842  0.04070031     0.17100
H2317       H  0.83268941  0.69526825  0.01139135     0.17100
N2318       N  0.68314112  0.70631041  0.04406646     0.00800
C2319       C  0.65323986  0.68472199  0.03115245     0.03400
C2320       C  0.63003834  0.69719599  0.03260099    -0.19500
C2321       C  0.64549252  0.72657444  0.04753109    -0.19700
C2322       C  0.67768272  0.73118660  0.05477383     0.03300
H2323       H  0.60284396  0.68362079  0.02658222     0.17100
H2324       H  0.63251368  0.73996340  0.05517870     0.17100
N2325       N  0.51689571  0.87516388  0.37665933     0.00800
C2326       C  0.98728641  0.85384652  0.36337773     0.03400
C2327       C  0.96459165  0.86698604  0.36417768    -0.19500
C2328       C  0.98003054  0.89637420  0.37914321    -0.19700
C2329       C  0.51169714  0.90036354  0.38710528     0.03300
H2330       H  0.93754601  0.85376439  0.35783556     0.17100
H2331       H  0.96713162  0.91001435  0.38647291     0.17100
N2332       N  0.61440829  0.89538373  0.35729530     0.00800
C2333       C  0.64374090  0.91733664  0.37055483     0.03400
C2334       C  0.66749213  0.90549197  0.36958965    -0.19500
C2335       C  0.65297347  0.87625662  0.35446122    -0.19700
C2336       C  0.62071589  0.87102504  0.34674689     0.03300
H2337       H  0.69453090  0.91951733  0.37594625     0.17100
H2338       H  0.66663565  0.86343639  0.34702747     0.17100
N2339       N  0.61049515  0.56077483  0.18966080     0.00800
C2340       C  0.60217106  0.58221140  0.20274461     0.03400
C2341       C  0.56643198  0.56953342  0.20131612    -0.19500
C2342       C  0.55256718  0.54025922  0.18625481    -0.19700
C2343       C  0.58020314  0.53586952  0.17886346     0.03300
H2344       H  0.55272919  0.58299581  0.20734298     0.17100
H2345       H  0.52621873  0.52692272  0.17853171     0.17100
N2346       N  0.68827060  0.54095904  0.20839003     0.00800
C2347       C  0.69578881  0.51899791  0.19526172     0.03400
C2348       C  0.73138811  0.53083320  0.19660494    -0.19500
C2349       C  0.74592979  0.56004276  0.21177149    -0.19700
C2350       C  0.71881416  0.56530517  0.21914031     0.03300
H2351       H  0.74444847  0.01678156  0.19044789     0.17100
H2352       H  0.77232078  0.57286519  0.21941622     0.17100
N2353       N  0.55345498  0.83589734  0.85614137     0.00800
C2354       C  0.53201297  0.80628393  0.86939405     0.03400
C2355       C  0.54531474  0.78370935  0.86892035    -0.19500
C2356       C  0.57491197  0.79918239  0.85416950    -0.19700
C2357       C  0.57885691  0.83076099  0.84603713     0.03300
H2358       H  0.53208121  0.75667919  0.87528860     0.17100
H2359       H  0.58875263  0.78635932  0.84708155     0.17100
N2360       N  0.57311916  0.93359408  0.87435151     0.00800
C2361       C  0.59511350  0.96291629  0.86109060     0.03400
C2362       C  0.58335021  0.98673631  0.86216615    -0.19500
C2363       C  0.55411469  0.97222350  0.87732224    -0.19700
C2364       C  0.54884510  0.93993811  0.88500993     0.03300
H2365       H  0.59748129  0.51388121  0.85596441     0.17100
H2366       H  0.54139568  0.98593972  0.88484042     0.17100
N2367       N  0.88612854  0.84074746  0.69059288     0.00800
C2368       C  0.86415760  0.84808045  0.70383962     0.03400
C2369       C  0.87573511  0.88361883  0.70261952    -0.19500
C2370       C  0.90485047  0.89835082  0.68737573    -0.19700
C2371       C  0.91022377  0.87137804  0.67979831     0.03300
H2372       H  0.86158785  0.89652445  0.70889405     0.17100
H2373       H  0.91748858  0.92476598  0.67979532     0.17100
N2374       N  0.90730301  0.76407485  0.70991159     0.00800
C2375       C  0.92857767  0.75592545  0.69646277     0.03400
C2376       C  0.91553110  0.72007974  0.69711922    -0.19500
C2377       C  0.88631077  0.70594910  0.71224395    -0.19700
C2378       C  0.88225094  0.73354412  0.72028056     0.03300
H2379       H  0.92877803  0.70638113  0.69060297     0.17100
H2380       H  0.87274312  0.67934794  0.71949870     0.17100
N2381       N  0.72065211  0.67030593  0.52287763     0.00800
C2382       C  0.69912061  0.64060608  0.53597544     0.03400
C2383       C  0.71132786  0.61718995  0.53432376    -0.19500
C2384       C  0.74044557  0.63236724  0.51909703    -0.19700
C2385       C  0.74514741  0.66458235  0.51185192     0.03300
H2386       H  0.69764277  0.59000352  0.54034887     0.17100
H2387       H  0.75346013  0.61914295  0.51122102     0.17100
N2388       N  0.74072560  0.76770510  0.54248425     0.00800
C2389       C  0.76329340  0.79785942  0.53025654     0.03400
C2390       C  0.75175936  0.82178729  0.53220625    -0.19500
C2391       C  0.72193395  0.80638706  0.54671101    -0.19700
C2392       C  0.71614895  0.77352242  0.55322349     0.03300
H2393       H  0.76619548  0.84924155  0.52687315     0.17100
H2394       H  0.70907886  0.81971058  0.55469198     0.17100
N2395       N  0.72116095  0.50657352  0.02370199     0.00800
C2396       C  0.69951425  0.01428567  0.03704907     0.03400
C2397       C  0.71183284  0.54996726  0.03615695    -0.19500
C2398       C  0.74107352  0.56444512  0.02101243    -0.19700
C2399       C  0.74576118  0.53714339  0.01313380     0.03300
H2400       H  0.69812704  0.56325954  0.04256883     0.17100
H2401       H  0.75417591  0.59097529  0.01362117     0.17100
N2402       N  0.74039455  0.92848932  0.04268059     0.00800
C2403       C  0.76205867  0.92035609  0.02970387     0.03400
C2404       C  0.74889304  0.88450177  0.03036983    -0.19500
C2405       C  0.71909278  0.87033290  0.04491175    -0.19700
C2406       C  0.71493047  0.89793123  0.05280979     0.03300
H2407       H  0.76226114  0.87076353  0.02420933     0.17100
H2408       H  0.70526110  0.84368564  0.05207151     0.17100
N2409       N  0.57431864  0.59674837  0.37644159     0.00800
C2410       C  0.59614802  0.58877022  0.36357513     0.03400
C2411       C  0.58443951  0.55326727  0.36561701    -0.19500
C2412       C  0.55529946  0.53919752  0.38080347    -0.19700
C2413       C  0.55008498  0.56651403  0.38764958     0.03300
H2414       H  0.59846633  0.54001357  0.35986429     0.17100
H2415       H  0.54260096  0.51308575  0.38892488     0.17100
N2416       N  0.55378936  0.67401882  0.35738901     0.00800
C2417       C  0.53082944  0.68110552  0.36954946     0.03400
C2418       C  0.54152118  0.71635629  0.36722177    -0.19500
C2419       C  0.57115700  0.73113227  0.35252214    -0.19700
C2420       C  0.57776717  0.70449997  0.34633528     0.03300
H2421       H  0.02652966  0.72883585  0.37237419     0.17100
H2422       H  0.58338740  0.75716115  0.34428529     0.17100
N2423       N  0.90890020  0.60045301  0.20917755     0.00800
C2424       C  0.88446939  0.60673727  0.21967535     0.03400
C2425       C  0.88926440  0.63866667  0.21152723    -0.19500
C2426       C  0.91839755  0.65312307  0.19630733    -0.19700
C2427       C  0.93059906  0.62965001  0.19569903     0.03300
H2428       H  0.87630036  0.65228495  0.21877333     0.17100
H2429       H  0.93221903  0.68007571  0.18975462     0.17100
N2430       N  0.88783814  0.00271932  0.18954498     0.00800
C2431       C  0.86655243  0.97330530  0.20302461     0.03400
C2432       C  0.87935358  0.95032653  0.20222685    -0.19500
C2433       C  0.90847340  0.96531742  0.18700202    -0.19700
C2434       C  0.91267275  0.99706172  0.17899951     0.03300
H2435       H  0.86601918  0.92337020  0.20876398     0.17100
H2436       H  0.92185006  0.95215817  0.17965790     0.17100
N2437       N  0.77524034  0.83566367  0.35813492     0.00800
C2438       C  0.76787818  0.80642963  0.37151551     0.03400
C2439       C  0.73218803  0.78287736  0.37085419    -0.19500
C2440       C  0.71741415  0.79737977  0.35576022    -0.19700
C2441       C  0.74450839  0.82938556  0.34766309     0.03300
H2442       H  0.71912096  0.75584453  0.37722643     0.17100
H2443       H  0.69085107  0.78367154  0.34843455     0.17100
N2444       N  0.85232954  0.93359089  0.37699562     0.00800
C2445       C  0.86004555  0.96323668  0.36399735     0.03400
C2446       C  0.89568643  0.98683900  0.36525980    -0.19500
C2447       C  0.91014113  0.97185147  0.38016219    -0.19700
C2448       C  0.88291190  0.93950732  0.38751304     0.03300
H2449       H  0.90889667  0.51392395  0.35909055     0.17100
H2450       H  0.93661702  0.98517211  0.38766036     0.17100
N2451       N  0.68429930  0.59772115  0.70897134     0.00800
C2452       C  0.69249103  0.62730830  0.69569084     0.03400
C2453       C  0.72832999  0.65015231  0.69653271    -0.19500
C2454       C  0.74239657  0.63482768  0.71148735    -0.19700
C2455       C  0.71476817  0.60306886  0.71937582     0.03300
H2456       H  0.74206106  0.67722421  0.69025296     0.17100
H2457       H  0.76894596  0.64781972  0.71884551     0.17100
N2458       N  0.60637553  0.99983798  0.69078609     0.00800
C2459       C  0.59914881  0.97021969  0.70362431     0.03400
C2460       C  0.56372273  0.94593283  0.70184828    -0.19500
C2461       C  0.54901243  0.96045852  0.68671734    -0.19700
C2462       C  0.57585066  0.99328913  0.67983687     0.03300
H2463       H  0.55096002  0.91869646  0.70771802     0.17100
H2464       H  0.52277909  0.94664092  0.67881209     0.17100
N2465       N  0.77789305  0.50640308  0.52338304     0.00800
C2466       C  0.80743056  0.51451616  0.53673075     0.03400
C2467       C  0.83017694  0.55037126  0.53610187    -0.19500
C2468       C  0.81494850  0.56451268  0.52110407    -0.19700
C2469       C  0.78325882  0.53692756  0.51303147     0.03300
H2470       H  0.85719052  0.56408872  0.54251667     0.17100
H2471       H  0.82799551  0.59111632  0.51385659     0.17100
N2472       N  0.68038349  0.92875737  0.54262644     0.00800
C2473       C  0.65100863  0.92109415  0.52934421     0.03400
C2474       C  0.62752079  0.88540603  0.53026008    -0.19500
C2475       C  0.64227524  0.87091109  0.54538257    -0.19700
C2476       C  0.67438963  0.89816806  0.55314421     0.03300
H2477       H  0.60050125  0.87214479  0.52385037     0.17100
H2478       H  0.62885295  0.84437467  0.55275829     0.17100
N2479       N  0.84824077  0.76145724  0.20868163     0.00800
C2480       C  0.81843357  0.75450690  0.19623869     0.03400
C2481       C  0.79394877  0.71914826  0.19804310    -0.19500
C2482       C  0.80862553  0.70417304  0.21273216    -0.19700
C2483       C  0.84164430  0.73082708  0.21947576     0.03300
H2484       H  0.76654455  0.70664055  0.19261346     0.17100
H2485       H  0.79469313  0.67798943  0.22071150     0.17100
N2486       N  0.94626850  0.83861893  0.18988324     0.00800
C2487       C  0.97614553  0.84651812  0.20264038     0.03400
C2488       C  0.50009084  0.88206409  0.20053729    -0.19500
C2489       C  0.98496210  0.89611540  0.18542654    -0.19700
C2490       C  0.95231956  0.86884029  0.17867280     0.03300
H2491       H  0.52744491  0.89524829  0.20615975     0.17100
H2492       H  0.49850930  0.92221642  0.17717038     0.17100
N2493       N  0.94088918  0.66606880  0.02285499     0.00800
C2494       C  0.93330970  0.63598261  0.03514828     0.03400
C2495       C  0.89787500  0.61189110  0.03309834    -0.19500
C2496       C  0.88343990  0.62712060  0.01844092    -0.19700
C2497       C  0.91051004  0.66000656  0.01189368     0.03300
H2498       H  0.88492359  0.58444528  0.03845188     0.17100
H2499       H  0.85730472  0.61363727  0.01034903     0.17100
N2500       N  0.51756391  0.76335096  0.04360047     0.00800
C2501       C  0.52596757  0.79314739  0.03053151     0.03400
C2502       C  0.56168441  0.81628981  0.03202759    -0.19500
C2503       C  0.57551060  0.80087334  0.04708688    -0.19700
C2504       C  0.54782368  0.76883307  0.05448324     0.03300
H2505       H  0.57536923  0.84350412  0.02606357     0.17100
H2506       H  0.60181599  0.81395313  0.05489293     0.17100
N2507       N  0.61055646  0.66933874  0.85504851     0.00800
C2508       C  0.64028879  0.67731956  0.86805760     0.03400
C2509       C  0.66354920  0.71303745  0.86694258    -0.19500
C2510       C  0.64825580  0.72730810  0.85217809    -0.19700
C2511       C  0.61611530  0.69988875  0.84467883     0.03300
H2512       H  0.69069961  0.72651364  0.87305610     0.17100
H2513       H  0.66133243  0.75383380  0.84478311     0.17100
N2514       N  0.51283887  0.59292495  0.87493586     0.00800
C2515       C  0.98329261  0.58546880  0.86189680     0.03400
C2516       C  0.95909006  0.55004851  0.86371148    -0.19500
C2517       C  0.97360165  0.53553220  0.87903723    -0.19700
C2518       C  0.00629088  0.56248355  0.88607484     0.03300
H2519       H  0.93190672  0.53715438  0.85769133     0.17100
H2520       H  0.95982013  0.50931422  0.88695449     0.17100
O2521       O  0.87221916  0.62902459  0.79903962    -0.75900
O2522       O  0.70551014  0.54627287  0.88028053    -0.77400
O2523       O  0.79211917  0.52472060  0.84982797    -0.74400
O2524       O  0.75051115  0.57411144  0.79884293    -0.72800
O2525       O  0.75014430  0.62608686  0.79971216    -0.74600
O2526       O  0.82632714  0.54141357  0.88539793    -0.75500
O2527       O  0.72218319  0.52905492  0.84458530    -0.76900
O2528       O  0.82024454  0.57659092  0.79955718    -0.77200
Eu2529     Eu  0.78380346  0.57405187  0.83607793     2.39200
O2530       O  0.75454527  0.60354875  0.85082064    -0.84700
O2531       O  0.84232173  0.60337740  0.85066095    -0.88300
C2532       C  0.85020404  0.59881155  0.78969950     1.06400
C2533       C  0.69951178  0.52506988  0.86160965     1.06200
C2534       C  0.80780934  0.51882889  0.86824181     1.06200
C2535       C  0.74236561  0.59624892  0.78964048     1.04000
H2536       H  0.77089118  0.55015595  0.88677705     0.33800
O2537       O  0.78344731  0.57395905  0.88059674    -0.97100
H2538       H  0.81318947  0.63305625  0.80385330     0.33800
O2539       O  0.81316656  0.63288270  0.82204819    -0.99600
O2540       O  0.75550783  0.63669134  0.93304884    -0.76800
O2541       O  0.92130106  0.71961862  0.84999050    -0.76400
O2542       O  0.80908381  0.57074396  0.93291676    -0.74800
O2543       O  0.72613907  0.65314346  0.85022507    -0.78100
O2544       O  0.81709070  0.69704772  0.79961844    -0.76000
O2545       O  0.89965660  0.61147375  0.88008505    -0.74600
O2546       O  0.87602715  0.69048977  0.93277176    -0.76200
O2547       O  0.83460658  0.73995486  0.88133776    -0.78100
O2548       O  0.87617488  0.63839501  0.93191103    -0.74800
O2549       O  0.79923251  0.72300885  0.84635983    -0.77500
O2550       O  0.75658568  0.57013434  0.93223949    -0.73200
O2551       O  0.91701963  0.64593794  0.84463142    -0.73300
O2552       O  0.86896960  0.69647328  0.79978869    -0.72900
O2553       O  0.70884702  0.61922165  0.88591474    -0.76400
O2554       O  0.80774420  0.68887219  0.93239125    -0.75800
O2555       O  0.90485568  0.73667248  0.88586000    -0.74200
Eu2556     Eu  0.75440775  0.60343137  0.89527316     2.39800
Eu2557     Eu  0.87187436  0.66224167  0.83611109     2.39600
Eu2558     Eu  0.84233017  0.60270679  0.89508610     2.38400
Eu2559     Eu  0.78391644  0.66218569  0.83644383     2.39900
Eu2560     Eu  0.84333849  0.69123531  0.89541136     2.39800
O2561       O  0.84281158  0.69146198  0.85099316    -0.88600
O2562       O  0.81329713  0.63234792  0.90882710    -0.87500
C2563       C  0.77789989  0.66680511  0.94245258     1.06600
C2564       C  0.92738846  0.74093513  0.86858900     1.05300
C2565       C  0.77896999  0.56287068  0.94236382     1.04700
C2566       C  0.70464616  0.63755271  0.86867277     1.06700
C2567       C  0.84719558  0.70499255  0.79016531     1.05600
C2568       C  0.92100837  0.62712984  0.86155165     1.04500
C2569       C  0.88396367  0.66822605  0.94199342     1.04500
C2570       C  0.81832840  0.74564434  0.86327574     1.07100
H2571       H  0.89580510  0.67248632  0.88675840     0.34500
O2572       O  0.87198882  0.66130919  0.88060530    -1.00700
H2573       H  0.77343991  0.67476978  0.88723059     0.36600
O2574       O  0.78467920  0.66229045  0.88091965    -1.03300
O2575       O  0.91775008  0.96131241  0.96603392    -0.75900
O2576       O  0.50261552  0.87971386  0.04858966    -0.77400
O2577       O  0.98516573  0.90937602  0.96518490    -0.74400
O2578       O  0.89513258  0.85838578  0.01824272    -0.72800
O2579       O  0.87756498  0.87525515  0.05367683    -0.74600
O2580       O  0.53762025  0.96139487  0.96598653    -0.75500
O2581       O  0.96858483  0.86234535  0.01296122    -0.76900
O2582       O  0.91786694  0.90920120  0.96685782    -0.77200
Eu2583     Eu  0.95225523  0.90744431  0.00334679     2.39200
O2584       O  0.95241986  0.90789358  0.04775430    -0.84700
O2585       O  0.98100983  0.96623069  0.98978585    -0.88300
C2586       C  0.90985871  0.93111635  0.95683998     1.06400
C2587       C  0.48697433  0.85817857  0.03014734     1.06200
C2588       C  0.51524084  0.93182322  0.95573597     1.06200
C2589       C  0.87368797  0.85254929  0.03673124     1.04000
H2590       H  0.52382051  0.92678546  0.01140637     0.33800
O2591       O  0.51120255  0.93790207  0.01768501    -0.97100
H2592       H  0.89847909  0.92325381  0.01182796     0.33800
O2593       O  0.92230586  0.93598693  0.01795285    -0.99600
O2594       O  0.54444472  0.97082466  0.09947629    -0.76800
O2595       O  0.95901849  0.55189267  0.01749958    -0.76400
O2596       O  0.58914113  0.98863192  0.01790688    -0.74800
O2597       O  0.92233887  0.90295911  0.09931411    -0.78100
O2598       O  0.87285405  0.94444991  0.04851260    -0.76000
O2599       O  0.53844011  0.52848137  0.96541261    -0.74600
O2600       O  0.56761108  0.57430530  0.04864406    -0.76200
O2601       O  0.97694411  0.02593309  0.09923966    -0.78100
O2602       O  0.58473279  0.55822692  0.01263118    -0.74800
O2603       O  0.92518692  0.97330615  0.09903753    -0.77500
O2604       O  0.57244488  0.95393193  0.05322766    -0.73200
O2605       O  0.98601584  0.52805015  0.96622949    -0.73300
O2606       O  0.88926322  0.97856999  0.01292919    -0.72900
O2607       O  0.97476620  0.90344734  0.09881456    -0.76400
O2608       O  0.54451456  0.52304680  0.09880180    -0.75800
O2609       O  0.99428103  0.57029767  0.05253015    -0.74200
Eu2610     Eu  0.51100375  0.93741218  0.06221750     2.39800
Eu2611     Eu  0.95071092  0.99470445  0.00329445     2.39600
Eu2612     Eu  0.53991715  0.99656913  0.00318729     2.38400
Eu2613     Eu  0.92248563  0.93672625  0.06242888     2.39900
Eu2614     Eu  0.01017710  0.52505007  0.06223948     2.39800
O2615       O  0.95133883  0.99509535  0.04769785    -0.88600
O2616       O  0.53997828  0.99630271  0.04764930    -0.87500
C2617       C  0.55255368  0.50109924  0.10875880     1.06600
C2618       C  0.97512366  0.57379353  0.03562277     1.05300
C2619       C  0.59511933  0.97300670  0.03631798     1.04700
C2620       C  0.94466307  0.89519506  0.10864354     1.06700
C2621       C  0.86671647  0.95993642  0.03009208     1.05600
C2622       C  0.01581205  0.53593051  0.95605593     1.04500
C2623       C  0.58891624  0.58054149  0.03003805     1.04500
C2624       C  0.94695261  0.00355660  0.10874801     1.07100
H2625       H  0.02038584  0.54847644  0.01147798     0.34500
O2626       O  0.00935080  0.52472468  0.01773991    -1.00700
H2627       H  0.98136102  0.96645211  0.09459819     0.36600
O2628       O  0.98128793  0.96638625  0.07640334    -1.03300
O2629       O  0.87739051  0.63838094  0.43272588    -0.75900
O2630       O  0.79293407  0.72147754  0.35129177    -0.77400
O2631       O  0.90092636  0.74321628  0.38197627    -0.74400
O2632       O  0.80971668  0.69427667  0.43253729    -0.72800
O2633       O  0.75740620  0.64219038  0.43176438    -0.74600
O2634       O  0.91847106  0.72653276  0.34645975    -0.75500
O2635       O  0.82734617  0.73900551  0.38677966    -0.76900
O2636       O  0.87712096  0.69042116  0.43224647    -0.77200
Eu2637     Eu  0.84340204  0.69378666  0.39570251     2.39200
O2638       O  0.78463939  0.66427134  0.38084971    -0.84700
O2639       O  0.87259961  0.66445280  0.38130732    -0.88300
C2640       C  0.88528618  0.66848380  0.44207509     1.06400
C2641       C  0.80856599  0.74292099  0.36979909     1.06200
C2642       C  0.92246334  0.74920765  0.36354039     1.06200
C2643       C  0.77939518  0.67215220  0.44171436     1.04000
H2644       H  0.85418037  0.71741589  0.34492178     0.33800
O2645       O  0.84290693  0.69364670  0.35116902    -0.97100
H2646       H  0.81379536  0.63511762  0.42802939     0.33800
O2647       O  0.81389344  0.63509058  0.40983438    -0.99600
O2648       O  0.75244474  0.63051853  0.29864428    -0.76800
O2649       O  0.83449174  0.54791767  0.38208463    -0.76400
O2650       O  0.87194985  0.69668099  0.29903654    -0.74800
O2651       O  0.70615289  0.61402266  0.38117479    -0.78100
O2652       O  0.75487047  0.57241037  0.43290490    -0.76000
O2653       O  0.92157997  0.65600235  0.35167238    -0.74600
O2654       O  0.81937152  0.57753476  0.29922267    -0.76200
O2655       O  0.72782735  0.52744995  0.35127581    -0.78100
O2656       O  0.87173232  0.62957720  0.30015952    -0.74800
O2657       O  0.71027933  0.54427935  0.38673785    -0.77500
O2658       O  0.82005841  0.69728418  0.29953618    -0.73200
O2659       O  0.90415529  0.62072029  0.38668884    -0.73300
O2660       O  0.80670387  0.57175996  0.43250337    -0.72900
O2661       O  0.72280245  0.64788047  0.34544340    -0.76400
O2662       O  0.75220608  0.57821063  0.29949289    -0.75800
O2663       O  0.80106901  0.53077789  0.34615432    -0.74200
Eu2664     Eu  0.78435157  0.66407918  0.33642059     2.39800
Eu2665     Eu  0.84312159  0.60552143  0.39583714     2.39600
Eu2666     Eu  0.87311332  0.66496394  0.33691550     2.38400
Eu2667     Eu  0.75529044  0.60573371  0.39542801     2.39900
Eu2668     Eu  0.78529429  0.57621958  0.33660852     2.39800
O2669       O  0.78472654  0.57625788  0.38105274    -0.88600
O2670       O  0.81432306  0.63510334  0.32318698    -0.87500
C2671       C  0.74474175  0.60040055  0.28929882     1.06600
C2672       C  0.81924170  0.52656951  0.36350660     1.05300
C2673       C  0.84979820  0.70460683  0.28954979     1.04700
C2674       C  0.70020556  0.62945026  0.36261980     1.06700
C2675       C  0.77682381  0.56419348  0.44240620     1.05600
C2676       C  0.92703776  0.63970851  0.36986436     1.04500
C2677       C  0.84967844  0.59980960  0.29001803     1.04500
C2678       C  0.70640749  0.52158165  0.36978357     1.07100
H2679       H  0.85651961  0.59508141  0.34525728     0.34500
O2680       O  0.84394246  0.60631302  0.35138756    -1.00700
H2681       H  0.73193472  0.59266494  0.34463413     0.36600
O2682       O  0.75568054  0.60526962  0.35093008    -1.03300
O2683       O  0.73365453  0.90794805  0.71516585    -0.75900
O2684       O  0.65079169  0.74218015  0.63230111    -0.77400
O2685       O  0.75414201  0.82139721  0.68439703    -0.74400
O2686       O  0.70453632  0.86316180  0.63255448    -0.72800
O2687       O  0.65244069  0.86334817  0.63334110    -0.74600
O2688       O  0.73739221  0.78753700  0.72015629    -0.75500
O2689       O  0.70301494  0.79438518  0.63293044    -0.76900
O2690       O  0.75110648  0.89128614  0.67958234    -0.77200
Eu2691     Eu  0.70545139  0.83012349  0.66985355     2.39200
O2692       O  0.64662979  0.80030775  0.65627985    -0.84700
O2693       O  0.70516302  0.82950426  0.71429517    -0.88300
C2694       C  0.75521150  0.91385603  0.69674692     1.06400
C2695       C  0.68087710  0.76451643  0.62292628     1.06200
C2696       C  0.76002667  0.80612446  0.70308355     1.06200
C2697       C  0.68226585  0.87110898  0.62327588     1.04000
H2698       H  0.68912963  0.76041345  0.67815786     0.33800
O2699       O  0.67651725  0.77154712  0.68440657    -0.97100
H2700       H  0.68672546  0.88263126  0.67845221     0.33800
O2701       O  0.67548449  0.85880928  0.68459302    -0.99600
O2702       O  0.56031404  0.69284786  0.68455507    -0.76800
O2703       O  0.64347571  0.85923380  0.76650720    -0.76400
O2704       O  0.66826513  0.71351995  0.71471703    -0.74800
O2705       O  0.58508315  0.79607281  0.63227484    -0.78100
O2706       O  0.62519419  0.88650301  0.68502401    -0.76000
O2707       O  0.70971682  0.80413471  0.76592865    -0.74600
O2708       O  0.58620053  0.73616724  0.76579131    -0.76200
O2709       O  0.53885090  0.77961825  0.71538092    -0.78100
O2710       O  0.63855127  0.73650591  0.76525572    -0.74800
O2711       O  0.55542998  0.81319159  0.67952490    -0.77500
O2712       O  0.63414281  0.69616626  0.67911913    -0.73200
O2713       O  0.71005261  0.85646983  0.76558804    -0.73300
O2714       O  0.65956298  0.90380483  0.72050435    -0.72900
O2715       O  0.58450123  0.74359857  0.63291691    -0.76400
O2716       O  0.54195289  0.70993837  0.71947056    -0.75800
O2717       O  0.59097267  0.80737358  0.76570635    -0.74200
Eu2718     Eu  0.61775168  0.74142617  0.66989332     2.39800
Eu2719     Eu  0.67603398  0.85874851  0.72906674     2.39600
Eu2720     Eu  0.67584350  0.77067395  0.72890524     2.38400
Eu2721     Eu  0.61688620  0.82932235  0.67009259     2.39900
Eu2722     Eu  0.58780201  0.77080971  0.72896064     2.39800
O2723       O  0.61709584  0.82940289  0.71454600    -0.88600
O2724       O  0.61737413  0.74153267  0.71429041    -0.87500
C2725       C  0.53839537  0.68719053  0.70265850     1.06600
C2726       C  0.61319809  0.83719210  0.77576554     1.05300
C2727       C  0.65281652  0.69211806  0.69617944     1.04700
C2728       C  0.57715165  0.76594653  0.62284674     1.06700
C2729       C  0.64077922  0.90783280  0.70357905     1.05600
C2730       C  0.71794539  0.83432335  0.77533917     1.04500
C2731       C  0.60839609  0.72817308  0.77507802     1.04500
C2732       C  0.53290443  0.79500257  0.69681711     1.07100
H2733       H  0.64653464  0.79981215  0.76129176     0.34500
O2734       O  0.64652692  0.79994098  0.74309797    -1.00700
H2735       H  0.56445915  0.75797440  0.67819373     0.36600
O2736       O  0.58821863  0.77046527  0.68446536    -1.03300
O2737       O  0.70813045  0.79702154  0.13378153    -0.75900
O2738       O  0.54054498  0.71464388  0.21572346    -0.77400
O2739       O  0.62636493  0.69255492  0.18483710    -0.74400
O2740       O  0.58397854  0.74133456  0.13405449    -0.72800
O2741       O  0.58383076  0.79342714  0.13437697    -0.74600
O2742       O  0.66090027  0.70936625  0.22022876    -0.75500
O2743       O  0.55728665  0.69721259  0.18014186    -0.76900
O2744       O  0.65559204  0.74515764  0.13432293    -0.77200
Eu2745     Eu  0.61856152  0.74204976  0.17081906     2.39200
O2746       O  0.58948517  0.77169939  0.18550001    -0.84700
O2747       O  0.67711256  0.77137428  0.18528310    -0.88300
C2748       C  0.68577849  0.76688962  0.12448333     1.06400
C2749       C  0.53470152  0.69325010  0.19721100     1.06200
C2750       C  0.64206522  0.68663631  0.20321632     1.06200
C2751       C  0.57563649  0.76326177  0.12470630     1.04000
H2752       H  0.60563968  0.71864059  0.22162026     0.33800
O2753       O  0.61822093  0.74238570  0.21533195    -0.97100
H2754       H  0.64768770  0.80035921  0.13829397     0.33800
O2755       O  0.64786152  0.80059484  0.15648834    -0.99600
O2756       O  0.59068737  0.80605896  0.26729735    -0.76800
O2757       O  0.75591941  0.88766866  0.18435956    -0.76400
O2758       O  0.64406218  0.73860893  0.26738277    -0.74800
O2759       O  0.56109651  0.82165560  0.18447539    -0.78100
O2760       O  0.65108324  0.86262750  0.13284401    -0.76000
O2761       O  0.73445020  0.77983390  0.21490330    -0.74600
O2762       O  0.70984071  0.85808335  0.26738672    -0.76200
O2763       O  0.66982760  0.90879296  0.21437392    -0.78100
O2764       O  0.71056514  0.80626383  0.26664532    -0.74800
O2765       O  0.63547921  0.89177379  0.17887180    -0.77500
O2766       O  0.59213574  0.73912841  0.26694796    -0.73200
O2767       O  0.75253728  0.81525364  0.17994690    -0.73300
O2768       O  0.70365517  0.86346077  0.13352003    -0.72900
O2769       O  0.54395873  0.78789770  0.22026044    -0.76400
O2770       O  0.64287875  0.85828576  0.26648018    -0.75800
O2771       O  0.73966457  0.90477510  0.22029514    -0.74200
Eu2772     Eu  0.58944923  0.77215838  0.22993158     2.39800
Eu2773     Eu  0.70666969  0.83021926  0.17051316     2.39600
Eu2774     Eu  0.67705754  0.77091457  0.22969416     2.38400
Eu2775     Eu  0.61862469  0.83005994  0.17056943     2.39900
Eu2776     Eu  0.67805833  0.85982934  0.22952201     2.39800
O2777       O  0.67759905  0.85965797  0.18502982    -0.88600
O2778       O  0.64832896  0.80104483  0.24328769    -0.87500
C2779       C  0.61307250  0.83622655  0.27658679     1.06600
C2780       C  0.76210588  0.90892714  0.20300647     1.05300
C2781       C  0.61412377  0.73115695  0.27688347     1.04700
C2782       C  0.53970557  0.80616373  0.20300394     1.06700
C2783       C  0.68126714  0.87080743  0.12342846     1.05600
C2784       C  0.75627357  0.79616050  0.19675345     1.04500
C2785       C  0.71783669  0.83589636  0.27678947     1.04500
C2786       C  0.65437004  0.91462380  0.19575389     1.07100
H2787       H  0.73022297  0.84066626  0.22124420     0.34500
O2788       O  0.70644640  0.82946557  0.21501555    -1.00700
H2789       H  0.60823562  0.84344293  0.22126138     0.36600
O2790       O  0.61939678  0.83081404  0.21509231    -1.03300
O2791       O  0.92277617  0.97274540  0.60034473    -0.75900
O2792       O  0.58891031  0.55539186  0.51807551    -0.77400
O2793       O  0.54237851  0.52604613  0.60079423    -0.74400
O2794       O  0.50216845  0.57626280  0.54799214    -0.72800
O2795       O  0.96775630  0.55937960  0.51252661    -0.74600
O2796       O  0.54238974  0.97381950  0.59986309    -0.75500
O2797       O  0.57222298  0.57283309  0.55365252    -0.76900
O2798       O  0.97491206  0.52504429  0.59986355    -0.77200
Eu2799     Eu  0.51065946  0.52750514  0.56296807     2.39200
O2800       O  0.51037462  0.52717165  0.51857694    -0.84700
O2801       O  0.98051724  0.96854773  0.57632988    -0.88300
C2802       C  0.94510535  0.50273214  0.60984678     1.06400
C2803       C  0.59486067  0.57688587  0.53654309     1.06200
C2804       C  0.54996013  0.00349198  0.61008367     1.06200
C2805       C  0.48651707  0.58204114  0.52949259     1.04000
H2806       H  0.56282698  0.00817557  0.55494569     0.33800
O2807       O  0.53909059  0.99706358  0.54863097    -0.97100
H2808       H  0.94096160  0.51132573  0.55447952     0.33800
O2809       O  0.95212225  0.49871438  0.54827992    -0.99600
O2810       O  0.53994487  0.96441873  0.46697892    -0.76800
O2811       O  0.87306361  0.88257947  0.54798197    -0.76400
O2812       O  0.56655857  0.94670924  0.54849770    -0.74800
O2813       O  0.48525587  0.53203342  0.46688004    -0.78100
O2814       O  0.89406195  0.49024863  0.51762331    -0.76000
O2815       O  0.97538779  0.90579997  0.60031088    -0.74600
O2816       O  0.95964920  0.86074066  0.51727622    -0.76200
O2817       O  0.91783819  0.90901646  0.46667819    -0.78100
O2818       O  0.99300309  0.87693707  0.55322609    -0.74800
O2819       O  0.91814470  0.96133823  0.46710628    -0.77500
O2820       O  0.58452405  0.98143326  0.51319237    -0.73200
O2821       O  0.92339693  0.90618235  0.59950543    -0.73300
O2822       O  0.87654019  0.95631278  0.55328722    -0.72900
O2823       O  0.53719805  0.53155824  0.46751345    -0.76400
O2824       O  0.98789724  0.91210159  0.46740102    -0.75800
O2825       O  0.89021086  0.86435376  0.51304124    -0.74200
Eu2826     Eu  0.53959120  0.99780559  0.50415392     2.36200
Eu2827     Eu  0.92174335  0.93986566  0.56261808     2.39600
Eu2828     Eu  0.00921070  0.93837067  0.56290369     2.38400
Eu2829     Eu  0.95157820  0.49811516  0.50378155     2.39900
Eu2830     Eu  0.95141736  0.90997071  0.50381464     2.39800
O2831       O  0.92210218  0.93960484  0.51822679    -0.88600
O2832       O  0.00988030  0.93888390  0.51850503    -0.87500
C2833       C  0.01790871  0.93421438  0.45755864     1.06600
C2834       C  0.86740302  0.86071040  0.52985591     1.05300
C2835       C  0.58816192  0.96241818  0.53011296     1.04700
C2836       C  0.51539112  0.53979431  0.45760400     1.06700
C2837       C  0.87254482  0.47490400  0.53613525     1.05600
C2838       C  0.94529171  0.89823232  0.60960947     1.04500
C2839       C  0.97483371  0.85457029  0.53584335     1.04500
C2840       C  0.91009743  0.93129130  0.45725516     1.07100
H2841       H  0.93784453  0.88618907  0.55440445     0.34500
O2842       O  0.95052721  0.90999704  0.54824478    -1.00700
H2843       H  0.98113739  0.96878520  0.47160393     0.36600
O2844       O  0.98098763  0.96875842  0.48979697    -1.03300
C2845       C  0.02097158  0.56050166  0.91001392    -0.09000
C2846       C  0.02294278  0.55229366  0.93149169    -0.10600
C2847       C  0.97039248  0.60976003  0.85862422    -0.09000
C2848       C  0.95061267  0.62148382  0.85909013    -0.10600
C2849       C  0.60045361  0.71087077  0.79927895    -0.09000
C2850       C  0.60179157  0.70213407  0.82069460    -0.10600
C2851       C  0.65432560  0.65386838  0.87096254    -0.09000
C2852       C  0.67469424  0.64280437  0.87067113    -0.10600
C2853       C  0.57657266  0.64183562  0.86164363    -0.09000
C2854       C  0.54706212  0.61985728  0.86824715    -0.10600
C2855       C  0.55811399  0.75487182  0.10057021    -0.09000
C2856       C  0.54942731  0.75536022  0.07898898    -0.10600
C2857       C  0.50281903  0.80751339  0.02756845    -0.09000
C2858       C  0.49209981  0.82815346  0.02804851    -0.10600
C2859       C  0.96947783  0.60341001  0.03766023    -0.09000
C2860       C  0.95761743  0.62306248  0.03807135    -0.10600
C2861       C  0.90072949  0.67590269  0.96634424    -0.09000
C2862       C  0.90892437  0.67457101  0.98789362    -0.10600
C2863       C  0.96808653  0.70007017  0.02984010    -0.09000
C2864       C  0.99018915  0.72945322  0.03667543    -0.10600
C2865       C  0.48965049  0.82272037  0.20570131    -0.09000
C2866       C  0.50984275  0.81148042  0.20518013    -0.10600
C2867       C  0.93795655  0.87020784  0.15453677    -0.09000
C2868       C  0.93682501  0.87834845  0.13294537    -0.10600
C2869       C  0.85747676  0.72083236  0.26501803    -0.09000
C2870       C  0.85605503  0.72880243  0.24342652    -0.10600
C2871       C  0.80583459  0.77911734  0.19371636    -0.09000
C2872       C  0.78608026  0.79084316  0.19448402    -0.10600
C2873       C  0.91215901  0.81116215  0.19637390    -0.09000
C2874       C  0.88251139  0.78892797  0.20257872    -0.10600
C2875       C  0.68980717  0.88775518  0.59884451    -0.09000
C2876       C  0.68833108  0.89596678  0.57730285    -0.10600
C2877       C  0.63734251  0.94482385  0.52682592    -0.09000
C2878       C  0.61757056  0.95651124  0.52770160    -0.10600
C2879       C  0.76987215  0.53920228  0.48856898    -0.09000
C2880       C  0.76891660  0.54760223  0.46694085    -0.10600
C2881       C  0.84281377  0.48065442  0.53833898    -0.09000
C2882       C  0.82228911  0.49159237  0.53903086    -0.10600
C2883       C  0.74389731  0.97867896  0.52988765    -0.09000
C2884       C  0.71446610  0.95629176  0.53631554    -0.10600
C2885       C  0.63516239  0.93748931  0.70604053    -0.09000
C2886       C  0.62353405  0.95736301  0.70661311    -0.10600
C2887       C  0.57387512  0.00829570  0.65613179    -0.09000
C2888       C  0.56604662  0.01053325  0.63464968    -0.10600
C2889       C  0.66949398  0.64198351  0.69319266    -0.09000
C2890       C  0.65850485  0.66242705  0.69385805    -0.10600
C2891       C  0.71691550  0.58951934  0.74373947    -0.09000
C2892       C  0.72549360  0.58853444  0.76527566    -0.10600
C2893       C  0.63394461  0.53415256  0.69671704    -0.09000
C2894       C  0.65638455  0.56376003  0.70276716    -0.10600
C2895       C  0.82479951  0.49685167  0.36142276    -0.09000
C2896       C  0.83620890  0.47678994  0.36103755    -0.10600
C2897       C  0.88511370  0.92500755  0.41139427    -0.09000
C2898       C  0.89344912  0.92351788  0.43287401    -0.10600
C2899       C  0.79153694  0.79256334  0.37346528    -0.09000
C2900       C  0.80290819  0.77251991  0.37229210    -0.10600
C2901       C  0.74211806  0.84230641  0.32309270    -0.09000
C2902       C  0.73403826  0.84335901  0.30141666    -0.10600
C2903       C  0.80256028  0.86991369  0.36438195    -0.09000
C2904       C  0.82477740  0.89949881  0.37066893    -0.10600
C2905       C  0.92830100  0.01051958  0.15459971    -0.09000
C2906       C  0.93783603  0.01148795  0.13305757    -0.10600
C2907       C  0.79749322  0.93854383  0.20519730    -0.09000
C2908       C  0.82895527  0.95883192  0.20571694    -0.10600
C2909       C  0.86875205  0.59353814  0.24410534    -0.09000
C2910       C  0.85900208  0.59231384  0.26562301    -0.10600
C2911       C  0.96809581  0.64359367  0.19365401    -0.09000
C2912       C  0.49950642  0.66364231  0.19478395    -0.10600
C2913       C  0.90177625  0.56623103  0.20261999    -0.09000
C2914       C  0.89441606  0.53673837  0.19605976    -0.10600
C2915       C  0.99363818  0.65639168  0.37252605    -0.09000
C2916       C  0.96213625  0.64482207  0.37206062    -0.10600
C2917       C  0.60514272  0.71464028  0.30133279    -0.09000
C2918       C  0.59501966  0.70640821  0.32277305    -0.10600
C2919       C  0.53423567  0.56502883  0.41177555    -0.09000
C2920       C  0.52463424  0.55670546  0.43330555    -0.10600
C2921       C  0.63345066  0.61262290  0.36015781    -0.09000
C2922       C  0.66493060  0.62395787  0.36042840    -0.10600
C2923       C  0.56779738  0.62429071  0.36999964    -0.09000
C2924       C  0.56049572  0.64656180  0.36370653    -0.10600
C2925       C  0.79983034  0.94336777  0.02740212    -0.09000
C2926       C  0.83129489  0.95431143  0.02801049    -0.10600
C2927       C  0.68988080  0.88719799  0.09883449    -0.09000
C2928       C  0.69914381  0.89559825  0.07720162    -0.10600
C2929       C  0.76128988  0.53919897  0.98874129    -0.09000
C2930       C  0.77039388  0.54693345  0.96704595    -0.10600
C2931       C  0.63052684  0.97900384  0.03871518    -0.09000
C2932       C  0.66202355  0.99064268  0.03954236    -0.10600
C2933       C  0.73444778  0.95636226  0.03613443    -0.09000
C2934       C  0.72756342  0.97890437  0.02981044    -0.10600
C2935       C  0.68975829  0.75690099  0.59850546    -0.09000
C2936       C  0.69946407  0.75852413  0.57699027    -0.10600
C2937       C  0.83214748  0.83090955  0.52776696    -0.09000
C2938       C  0.80062254  0.81101087  0.52739021    -0.10600
C2939       C  0.63020659  0.60661492  0.53877932    -0.09000
C2940       C  0.66170422  0.62674294  0.53919011    -0.10600
C2941       C  0.77020177  0.67991308  0.46600947    -0.09000
C2942       C  0.76073790  0.67866823  0.48758294    -0.10600
C2943       C  0.72715484  0.70429911  0.52944321    -0.09000
C2944       C  0.73434174  0.73375204  0.53591943    -0.10600
C2945       C  0.86631875  0.73127570  0.74455134    -0.09000
C2946       C  0.85649997  0.72248088  0.76601304    -0.10600
C2947       C  0.96627290  0.77885124  0.69407169    -0.09000
C2948       C  0.49767269  0.78969069  0.69469283    -0.10600
C2949       C  0.79534945  0.81209632  0.70565634    -0.09000
C2950       C  0.82684811  0.82394846  0.70651682    -0.10600
C2951       C  0.92632232  0.87359640  0.65561991    -0.09000
C2952       C  0.93609115  0.88175739  0.63408776    -0.10600
C2953       C  0.89335681  0.81370680  0.69704321    -0.09000
C2954       C  0.90083984  0.79163294  0.70347227    -0.10600
C2955       C  0.63248172  0.97617408  0.85836950    -0.09000
C2956       C  0.66404528  0.49574892  0.85908702    -0.10600
C2957       C  0.53301650  0.92625554  0.90929461    -0.09000
C2958       C  0.52380243  0.92474004  0.93097037    -0.10600
C2959       C  0.96276225  0.77074644  0.87076098    -0.09000
C2960       C  0.99419633  0.79132145  0.87150015    -0.10600
C2961       C  0.60418921  0.84502320  0.80013882    -0.09000
C2962       C  0.59462801  0.84414413  0.82166008    -0.10600
C2963       C  0.55944890  0.86980420  0.86241872    -0.09000
C2964       C  0.56649869  0.89935911  0.86849076    -0.10600
C2965       C  0.72869168  0.59149744  0.26468017    -0.09000
C2966       C  0.72084115  0.58174185  0.24312330    -0.10600
C2967       C  0.66025410  0.95002678  0.19315647    -0.09000
C2968       C  0.67181253  0.98154687  0.19245124    -0.10600
C2969       C  0.56968969  0.51033433  0.13307754    -0.09000
C2970       C  0.57839101  0.52003565  0.15459476    -0.10600
C2971       C  0.62538254  0.61979049  0.20576946    -0.09000
C2972       C  0.63645666  0.65126069  0.20539420    -0.10600
C2973       C  0.66071500  0.54758450  0.20232715    -0.09000
C2974       C  0.63830555  0.55469867  0.19610985    -0.10600
C2975       C  0.65716328  0.95472528  0.37307753    -0.09000
C2976       C  0.67692865  0.98622960  0.37224771    -0.10600
C2977       C  0.60559780  0.84529100  0.30103310    -0.09000
C2978       C  0.60692876  0.85489853  0.32257097    -0.10600
C2979       C  0.52509918  0.91584948  0.41159392    -0.09000
C2980       C  0.02591445  0.92525338  0.43317700    -0.10600
C2981       C  0.97252766  0.81614054  0.36077023    -0.09000
C2982       C  0.95216732  0.78464945  0.36131793    -0.10600
C2983       C  0.55076257  0.88131523  0.37007617    -0.09000
C2984       C  0.58020684  0.88846537  0.36361112    -0.10600
C2985       C  0.63908317  0.64726456  0.02801187    -0.09000
C2986       C  0.61870163  0.61583303  0.02812925    -0.10600
C2987       C  0.69215854  0.74750430  0.07880165    -0.09000
C2988       C  0.69358008  0.75751382  0.10024602    -0.10600
C2989       C  0.77203130  0.68617468  0.98835665    -0.09000
C2990       C  0.77039945  0.67601047  0.96690728    -0.10600
C2991       C  0.82377808  0.78588658  0.03963835    -0.09000
C2992       C  0.84398033  0.81731862  0.03908443    -0.10600
C2993       C  0.74640936  0.71991767  0.03037245    -0.09000
C2994       C  0.71703873  0.71271982  0.03717714    -0.10600
C2995       C  0.55267065  0.74801586  0.57668218    -0.09000
C2996       C  0.56083754  0.75724321  0.59830378    -0.10600
C2997       C  0.49210120  0.61723049  0.52704936    -0.09000
C2998       C  0.50353483  0.64865250  0.52613851    -0.10600
C2999       C  0.95814970  0.78780647  0.53813184    -0.09000
C3000       C  0.96928613  0.81925942  0.53781842    -0.10600
C3001       C  0.90217148  0.67749086  0.46638548    -0.09000
C3002       C  0.91049123  0.68720381  0.48788863    -0.10600
C3003       C  0.97058796  0.72230487  0.52878652    -0.09000
C3004       C  0.99276512  0.71494898  0.53518222    -0.10600
C3005       C  0.82372681  0.78078528  0.86124538    -0.09000
C3006       C  0.83556207  0.81227972  0.86073764    -0.10600
C3007       C  0.88495724  0.91233513  0.91099536    -0.09000
C3008       C  0.89302063  0.92191658  0.93253726    -0.10600
C3009       C  0.73501966  0.84314891  0.79960301    -0.09000
C3010       C  0.74356300  0.85227650  0.82118857    -0.10600
C3011       C  0.79156878  0.95222141  0.87121842    -0.09000
C3012       C  0.80251571  0.98361992  0.87041653    -0.10600
C3013       C  0.82561992  0.87893711  0.86938808    -0.09000
C3014       C  0.80347052  0.88624632  0.86279569    -0.10600
C3015       C  0.50877434  0.65194353  0.70491017    -0.09000
C3016       C  0.48923676  0.62041929  0.70576538    -0.10600
C3017       C  0.93909691  0.52020689  0.65611193    -0.09000
C3018       C  0.93760613  0.51116933  0.63443745    -0.10600
C3019       C  0.78507228  0.94910965  0.69454370    -0.09000
C3020       C  0.80529353  0.98056839  0.69378634    -0.10600
C3021       C  0.85720903  0.58086845  0.74375942    -0.09000
C3022       C  0.85820999  0.59007899  0.76535441    -0.10600
C3023       C  0.91256503  0.55387059  0.69669180    -0.09000
C3024       C  0.88292987  0.54664470  0.70269440    -0.10600
loop_ 
_geom_bond_atom_site_label_1 
_geom_bond_atom_site_label_2 
_geom_bond_distance 
_geom_bond_site_symmetry_2 
_ccdc_geom_bond_type 
N1            C5   1.355       .  A
N1            C2   1.359       .  A
N1          C756   1.418       .  S
C2            C3   1.382       .  A
C2         C1508   1.450   1_545  S
C3            C4   1.372       .  A
C3          H762   1.083       .  S
C4            C5   1.380       .  A
C4            H7   1.083       .  S
C5          C753   1.443       .  S
H6          C759   1.083       .  S
N8           C12   1.353       .  A
N8            C9   1.357       .  A
N8          C755   1.417       .  S
C9         C1522   1.382       .  A
C9         C2260   1.447       .  S
C10        C1521   1.382   1_455  A
C10        C1523   1.373   1_455  A
C10          H13   1.083       .  S
C11          C12   1.381       .  A
C11        C1522   1.373       .  A
C11        H1526   1.083       .  S
C12         C749   1.441       .  S
H14        C1523   1.083       .  S
N15          C19   1.356       .  A
N15          C16   1.359       .  A
N15         C746   1.418       .  S
C16          C17   1.381       .  A
C16         C743   1.450       .  S
C17          C18   1.371       .  A
C17          H20   1.083       .  S
C18          C19   1.380       .  A
C18          H21   1.083       .  S
C19         C742   1.443       .  S
N22          C26   1.354       .  A
N22          C23   1.357       .  A
N22         C745   1.418       .  S
C23          C24   1.381       .  A
C23         C738   1.446       .  S
C24          C25   1.372       .  A
C24          H27   1.083       .  S
C25          C26   1.380       .  A
C25          H28   1.083       .  S
C26         C739   1.442       .  S
N29          C33   1.355       .  A
N29          C30   1.359       .  A
N29         C735   1.417       .  S
C30          C31   1.381       .  A
C30         C731   1.451       .  S
C31          C32   1.372       .  A
C31          H34   1.083       .  S
C32          C33   1.379       .  A
C32          H35   1.083       .  S
C33         C734   1.443       .  S
N36          C40   1.355       .  A
N36          C37   1.358       .  A
N36        C2248   1.418   1_455  S
C37          C38   1.381       .  A
C37         C730   1.447       .  S
C38          C39   1.372       .  A
C38          H41   1.083       .  S
C39          C40   1.380       .  A
C39          H42   1.083       .  S
C40         C727   1.444       .  S
N43          C47   1.357       .  A
N43          C44   1.359       .  A
N43         C725   1.419       .  S
C44          C45   1.381       .  A
C44         C723   1.448       .  S
C45          C46   1.371       .  A
C45          H48   1.083       .  S
C46          C47   1.380       .  A
C46          H49   1.083       .  S
C47         C721   1.447   1_554  S
N50          C54   1.356       .  A
N50          C51   1.360       .  A
N50         C726   1.419       .  S
C51          C52   1.381       .  A
C51         C717   1.450       .  S
C52          C53   1.371       .  A
C52          H55   1.083       .  S
C53          C54   1.380       .  A
C53          H56   1.083       .  S
C54         C719   1.445       .  S
N57          C61   1.357       .  A
N57        C1570   1.360   1_455  A
N57         C715   1.417       .  S
C58        N1569   1.360       .  A
C58          C59   1.381       .  A
C58         C713   1.453       .  S
C59          C60   1.372       .  A
C59          H62   1.083       .  S
C60        C1573   1.380       .  A
C60          H63   1.083       .  S
C61        C1572   1.380   1_455  A
C61         C711   1.448       .  S
N64          C68   1.355       .  A
N64          C65   1.358       .  A
N64         C716   1.417       .  S
C65          C66   1.381       .  A
C65         C707   1.448       .  S
C66          C67   1.372       .  A
C66          H69   1.083       .  S
C67          C68   1.380       .  A
C67          H70   1.083       .  S
C68         C710   1.444       .  S
N71          C75   1.357       .  A
N71          C72   1.360       .  A
N71         C706   1.418       .  S
C72          C73   1.381       .  A
C72         C703   1.452       .  S
C73          C74   1.372       .  A
C73          H76   1.083       .  S
C74          C75   1.379       .  A
C74          H77   1.083       .  S
C75         C702   1.447       .  S
N78          C82   1.355       .  A
N78          C79   1.359       .  A
N78         C705   1.417       .  S
C79          C80   1.382       .  A
C79        C1456   1.451   1_545  S
C80          C81   1.373       .  A
C80         H839   1.083       .  S
C81          C82   1.380       .  A
C81          H84   1.083       .  S
C82         C698   1.444       .  S
H83         C836   1.083       .  S
N85          C89   1.356       .  A
N85          C86   1.360       .  A
N85         C695   1.418       .  S
C86          C87   1.382       .  A
C86        C2204   1.453   1_455  S
C87          C88   1.372       .  A
C87          H90   1.083       .  S
C88          C89   1.379       .  A
C88          H91   1.083       .  S
C89         C694   1.446       .  S
N92          C96   1.355       .  A
N92          C93   1.358       .  A
N92         C696   1.417       .  S
C93          C94   1.382       .  A
C93         C687   1.449       .  S
C94          C95   1.373       .  A
C94         H853   1.083       .  S
C95          C96   1.380       .  A
C95          H98   1.083       .  S
C96         C689   1.445       .  S
H97         C850   1.083   1_545  S
N99         C103   1.355       .  A
N99         C100   1.358       .  A
N99         C685   1.418       .  S
C100        C101   1.381       .  A
C100        C682   1.447       .  S
C101        C102   1.372       .  A
C101        H104   1.083       .  S
C102        C103   1.380       .  A
C102        H105   1.083       .  S
C103        C683   1.445       .  S
N106        C110   1.355       .  A
N106        C107   1.360       .  A
N106        C686   1.418       .  S
C107        C108   1.382       .  A
C107        C679   1.451       .  S
C108        C109   1.372       .  A
C108        H111   1.083       .  S
C109        C110   1.379       .  A
C109        H112   1.083       .  S
C110        C677   1.445       .  S
N113        C117   1.355       .  A
N113        C114   1.359       .  A
N113        C675   1.418       .  S
C114        C115   1.382       .  A
C114        C672   1.450       .  S
C115        C116   1.372       .  A
C115        H118   1.083       .  S
C116        C117   1.380       .  A
C116        H119   1.083       .  S
C117        C674   1.444       .  S
N120        C124   1.354       .  A
N120        C121   1.359       .  A
N120        C676   1.418       .  S
C121        C122   1.382       .  A
C121        C670   1.449       .  S
C122        C123   1.372       .  A
C122        H125   1.083       .  S
C123        C124   1.380       .  A
C123        H126   1.083       .  S
C124        C668   1.442       .  S
N127        C131   1.355       .  A
N127        C884   1.358       .  A
N127       C1422   1.418   1_545  S
C128        N883   1.358       .  A
C128        C885   1.382       .  A
C128        C664   1.449       .  S
C129        C130   1.373       .  A
C129        C884   1.382       .  A
C129        H132   1.083       .  S
C130        C131   1.381       .  A
C130        H133   1.083       .  S
C131        C661   1.445   1_554  S
N134        C138   1.357       .  A
N134        C135   1.360       .  A
N134        C665   1.418       .  S
C135        C136   1.381       .  A
C135        C657   1.454       .  S
C136        C137   1.372       .  A
C136        H139   1.083       .  S
C137        C138   1.380       .  A
C137        H140   1.083       .  S
C138        C660   1.448       .  S
N141        C145   1.356       .  A
N141        C142   1.359       .  A
N141        C655   1.419       .  S
C142        C143   1.382       .  A
C142        C653   1.449       .  S
C143        C144   1.371       .  A
C143        H146   1.083       .  S
C144        C145   1.379       .  A
C144        H147   1.083       .  S
C145        C651   1.443       .  S
N148        C152   1.355       .  A
N148        C149   1.359       .  A
N148        C656   1.419       .  S
C149        C150   1.382       .  A
C149       C2159   1.449   1_455  S
C150        C151   1.371       .  A
C150       H1665   1.083       .  S
C151        C152   1.380       .  A
C151        H154   1.083       .  S
C152        C650   1.443       .  S
H153       C1662   1.083       .  S
N155        C159   1.358       .  A
N155        C156   1.356       .  A
N155        C645   1.418       .  S
C156        C157   1.380       .  A
C156        C641   1.447       .  S
C157        C158   1.372       .  A
C157        H160   1.083       .  S
C158        C159   1.381       .  A
C158        H161   1.083       .  S
C159        C643   1.447       .  S
N162        C166   1.356       .  A
N162        C163   1.359       .  A
N162       C1402   1.418       .  S
C163        C164   1.381       .  A
C163        C640   1.451       .  S
C164        C165   1.372       .  A
C164        H167   1.083       .  S
C165        C166   1.380       .  A
C165        H168   1.083       .  S
C166        C637   1.446       .  S
N169        C173   1.355       .  A
N169        C170   1.358       .  A
N169        C635   1.418       .  S
C170        C171   1.382       .  A
C170        C631   1.449       .  S
C171        C172   1.372       .  A
C171        H174   1.083       .  S
C172        C173   1.380       .  A
C172        H175   1.083       .  S
C173        C633   1.446       .  S
N176        C180   1.355       .  A
N176        C177   1.359       .  A
N176        C636   1.417       .  S
C177        C178   1.381       .  A
C177       C1384   1.450       .  S
C178        C179   1.372       .  A
C178        H937   1.083       .  S
C179        C180   1.380       .  A
C179        H182   1.083       .  S
C180        C629   1.443       .  S
H181        C934   1.083   1_545  S
N183        C187   1.356       .  A
N183        C184   1.360       .  A
N183        C626   1.418       .  S
C184        C185   1.382       .  A
C184        C621   1.452       .  S
C185        C186   1.372       .  A
C185        H188   1.083       .  S
C186        C187   1.379       .  A
C186        H189   1.083       .  S
C187        C623   1.446       .  S
N190        C194   1.354       .  A
N190        C191   1.359       .  A
N190       C1381   1.417       .  S
C191        C192   1.382       .  A
C191        C618   1.449       .  S
C192        C193   1.372       .  A
C192        H195   1.083       .  S
C193        C194   1.380       .  A
C193        H196   1.083       .  S
C194        C619   1.443       .  S
N197        C201   1.357       .  A
N197        C198   1.360       .  A
N197       C1371   1.417   1_545  S
C198        C199   1.381       .  A
C198        C614   1.455   1_545  S
C199        C200   1.373       .  A
C199        H202   1.083       .  S
C200        C201   1.380       .  A
C200        H203   1.083       .  S
C201        C611   1.449       .  S
N204        C208   1.354       .  A
N204        C205   1.357       .  A
N204        C616   1.417       .  S
C205        C206   1.382       .  A
C205        C609   1.447       .  S
C206        C207   1.372       .  A
C206        H209   1.083       .  S
C207        C208   1.380       .  A
C207        H210   1.083       .  S
C208        C608   1.444       .  S
N211        C215   1.354       .  A
N211        C212   1.358       .  A
N211        C606   1.418       .  S
C212        C213   1.382       .  A
C212        C603   1.448       .  S
C213        C214   1.372       .  A
C213        H216   1.083       .  S
C214        C215   1.380       .  A
C214        H217   1.083       .  S
C215        C602   1.442       .  S
N218        C222   1.355       .  A
N218        C219   1.359       .  A
N218        C605   1.419       .  S
C219       C1732   1.382       .  A
C219       C2109   1.448       .  S
C220       C1731   1.382   1_455  A
C220       C1733   1.371   1_455  A
C220        H223   1.083       .  S
C221        C222   1.379       .  A
C221       C1732   1.371       .  A
C221       H1736   1.083       .  S
C222        C599   1.442       .  S
H224       C1733   1.083       .  S
N225        C229   1.355       .  A
N225        C226   1.358       .  A
N225        C595   1.419       .  S
C226        C227   1.381       .  A
C226        C592   1.448       .  S
C227        C228   1.371       .  A
C227        H230   1.083       .  S
C228        C229   1.380       .  A
C228        H231   1.083       .  S
C229        C594   1.442   1_554  S
N232        C236   1.356       .  A
N232        C233   1.360       .  A
N232       C2108   1.419   1_455  S
C233        C234   1.381       .  A
C233        C589   1.450       .  S
C234        C235   1.371       .  A
C234        H237   1.083       .  S
C235        C236   1.380       .  A
C235        H238   1.083       .  S
C236        C588   1.445       .  S
N239        C243   1.356       .  A
N239        C240   1.360       .  A
N239        C585   1.417       .  S
C240        C241   1.381       .  A
C240        C583   1.451       .  S
C241        C242   1.371       .  A
C241        H244   1.083       .  S
C242        C243   1.379       .  A
C242        H245   1.083       .  S
C243        C582   1.445       .  S
N246       C1762   1.356       .  A
N246       C1759   1.359   1_455  A
N246        C586   1.417       .  S
C247       N1758   1.359       .  A
C247        C248   1.381       .  A
C247        C579   1.449       .  S
C248        C249   1.372       .  A
C248        H251   1.083       .  S
C249        C250   1.380       .  A
C249        H252   1.083       .  S
C250       N1758   1.356       .  A
C250        C577   1.447       .  S
O253        C264   1.288       .  A
O253       Eu289   2.455       .  S
O254        C265   1.294       .  A
O254       Eu288   2.482       .  S
O255        C266   1.294       .  A
O255       Eu261   2.482       .  S
O256        C267   1.289       .  A
O256       Eu261   2.459       .  S
O257        C267   1.294       .  A
O257       Eu291   2.482       .  S
O258        C266   1.292       .  A
O258       Eu290   2.475       .  S
O259        C265   1.291       .  A
O259       Eu261   2.468       .  S
O260        C264   1.294       .  A
O260       Eu261   2.481       .  S
Eu261       O271   2.360       .  S
Eu261       O263   2.357       .  S
Eu261       O262   2.371       .  S
Eu261       O269   2.362       .  S
O262       Eu291   2.358       .  S
O262       Eu288   2.359       .  S
O263       Eu289   2.370       .  S
O263       Eu290   2.357       .  S
C264        C754   1.441       .  S
C265        C688   1.449   1_545  S
C266       C1500   1.450   1_545  S
C267        C624   1.444       .  S
H268        O269   0.964       .  S
O269       Eu290   2.369       .  S
O269       Eu288   2.361       .  S
H270        O271   0.965       .  S
O271       Eu289   2.355       .  S
O271       Eu291   2.357       .  S
O272        C295   1.291       .  A
O272       Eu288   2.468       .  S
O273        C296   1.293       .  A
O273       Eu289   2.478       .  S
O274        C297   1.290       .  A
O274       Eu290   2.466       .  S
O275        C298   1.293       .  A
O275       Eu291   2.477       .  S
O276        C299   1.289       .  A
O276       Eu291   2.461       .  S
O277        C300   1.294       .  A
O277       Eu290   2.482       .  S
O278        C301   1.289       .  A
O278       Eu292   2.458       .  S
O279        C302   1.293       .  A
O279       Eu292   2.473       .  S
O280        C301   1.294       .  A
O280       Eu290   2.481       .  S
O281        C302   1.290       .  A
O281       Eu291   2.466       .  S
O282        C297   1.293       .  A
O282       Eu288   2.477       .  S
O283        C300   1.290       .  A
O283       Eu289   2.466       .  S
O284        C299   1.294       .  A
O284       Eu289   2.487       .  S
O285        C298   1.292       .  A
O285       Eu288   2.476       .  S
O286        C295   1.294       .  A
O286       Eu292   2.480       .  S
O287        C296   1.293       .  A
O287       Eu292   2.480       .  S
Eu288       O306   2.366       .  S
Eu288       O294   2.354       .  S
Eu289       O293   2.356       .  S
Eu289       O304   2.361       .  S
Eu290       O304   2.359       .  S
Eu290       O294   2.351       .  S
Eu291       O293   2.370       .  S
Eu291       O306   2.360       .  S
Eu292       O293   2.357       .  S
Eu292       O304   2.365       .  S
Eu292       O306   2.361       .  S
Eu292       O294   2.352       .  S
C295        C722   1.446       .  S
C296        C691   1.452       .  S
C297        C662   1.443       .  S
C298        C584   1.450       .  S
C299        C678   1.444       .  S
C300        C580   1.448       .  S
C301        C593   1.441       .  S
C302        C737   1.445       .  S
H303        O304   0.964       .  S
H305        O306   0.964       .  S
O307        C318   1.288       .  A
O307       Eu343   2.456   1_556  S
O308        C319   1.294   1_455  A
O308       Eu342   2.482       .  S
O309       C1832   1.290       .  A
O309       Eu315   2.466   1_556  S
O310        C321   1.294       .  A
O310       Eu315   2.482       .  S
O311        C321   1.290       .  A
O311       Eu345   2.465       .  S
O312        C320   1.294       .  A
O312       Eu344   2.479   1_556  S
O313       C1831   1.292       .  A
O313       Eu315   2.476       .  S
O314        C318   1.294       .  A
O314       Eu315   2.481   1_556  S
Eu315       O325   2.359       .  S
Eu315       O317   2.350   1_554  S
Eu315       O316   2.356       .  S
Eu315      O1835   2.370       .  S
O316       Eu345   2.370       .  S
O316      Eu1854   2.358       .  S
O317       Eu343   2.351   1_556  S
O317      Eu1856   2.353   1_556  S
C318        C740   1.440       .  S
C319        C590   1.450       .  S
C319       O1825   1.292       .  A
C320        C690   1.443       .  S
C320       O1821   1.290   1_455  A
C321        C724   1.447       .  S
H322        O323   0.964       .  S
O323       Eu344   2.362       .  S
O323       Eu342   2.363       .  S
O323      Eu1827   2.370   1_455  S
H324        O325   0.964       .  S
O325       Eu343   2.367       .  S
O325       Eu345   2.360       .  S
O326       C1105   1.290       .  A
O326       Eu342   2.463       .  S
O327        C350   1.293       .  A
O327      Eu1099   2.471   1_545  S
O328        C351   1.294       .  A
O328       Eu344   2.484       .  S
O329        C352   1.288       .  A
O329       Eu345   2.454       .  S
O330        C353   1.294       .  A
O330       Eu345   2.482       .  S
O331       C1866   1.291       .  A
O331      Eu1100   2.467   1_546  S
O332        C355   1.292       .  A
O332      Eu1858   2.471       .  S
O333        C356   1.289       .  A
O333      Eu1102   2.459       .  S
O334        C355   1.292       .  A
O334      Eu1100   2.477   1_545  S
O335        C356   1.295       .  A
O335       Eu345   2.487       .  S
O336        C351   1.290       .  A
O336       Eu342   2.467       .  S
O337        C354   1.294       .  A
O337      Eu1099   2.480   1_546  S
O338        C353   1.292       .  A
O338       Eu343   2.479       .  S
O339        C352   1.294       .  A
O339      Eu1854   2.481       .  S
O340        C349   1.295       .  A
O340      Eu1858   2.486       .  S
O341        C350   1.291       .  A
O341       Eu346   2.470       .  S
Eu342      O1851   2.481   1_455  S
Eu342       O348   2.371       .  S
Eu342      O1828   2.358   1_455  S
Eu342      O1872   2.358   1_455  S
Eu343      O1083   2.472       .  S
Eu343      O1093   2.480   1_554  S
Eu343       O347   2.356       .  S
Eu343      O1114   2.361       .  S
Eu344      O1087   2.466   1_554  S
Eu344      O1090   2.477       .  S
Eu344       O348   2.359       .  S
Eu344      O1829   2.353   1_454  S
Eu344      O2626   2.367       .  S
Eu345       O347   2.355       .  S
Eu345       O360   2.357       .  S
Eu346      O1844   2.471       .  S
Eu346      O1089   2.460       .  S
Eu346      O1852   2.486       .  S
Eu346       O358   2.361       .  S
Eu346      O1103   2.369   1_545  S
Eu346      O1116   2.356   1_545  S
Eu346      O2616   2.360   1_545  S
O347      Eu1102   2.369       .  S
O348      Eu2614   2.360       .  S
C349        C701   1.446       .  S
C349       O1082   1.290   1_545  A
C350        C591   1.446       .  S
C351        C663   1.448       .  S
C352        C600   1.440       .  S
C353        C658   1.453       .  S
C354        C578   1.445       .  S
C354       O1843   1.291       .  A
C355        C718   1.449       .  S
C356        C638   1.444       .  S
H357        O358   0.964       .  S
O358      Eu1099   2.361   1_545  S
O358      Eu2612   2.367   1_545  S
H359        O360   0.965       .  S
O360      Eu1854   2.358       .  S
O360      Eu1102   2.356       .  S
O361        C372   1.288       .  A
O361       Eu397   2.451       .  S
O362        C373   1.295       .  A
O362       Eu396   2.486       .  S
O363        C374   1.294       .  A
O363       Eu369   2.479       .  S
O364        C375   1.289       .  A
O364       Eu369   2.459       .  S
O365        C375   1.294       .  A
O365       Eu399   2.479       .  S
O366        C374   1.293       .  A
O366       Eu398   2.481       .  S
O367        C373   1.290       .  A
O367       Eu369   2.465       .  S
O368        C372   1.295       .  A
O368       Eu369   2.489       .  S
Eu369       O379   2.357       .  S
Eu369       O371   2.356       .  S
Eu369       O370   2.371       .  S
Eu369       O377   2.363       .  S
O370       Eu399   2.358       .  S
O370       Eu396   2.357       .  S
O371       Eu397   2.372       .  S
O371       Eu398   2.355       .  S
C372        C733   1.441       .  S
C373        C632   1.448       .  S
C374        C714   1.453       .  S
C375        C673   1.442       .  S
H376        O377   0.964       .  S
O377       Eu398   2.367       .  S
O377       Eu396   2.362       .  S
H378        O379   0.965       .  S
O379       Eu397   2.359       .  S
O379       Eu399   2.357       .  S
O380        C403   1.291       .  A
O380       Eu396   2.468       .  S
O381        C404   1.293       .  A
O381       Eu397   2.476       .  S
O382        C405   1.289       .  A
O382       Eu398   2.461       .  S
O383        C406   1.294       .  A
O383       Eu399   2.481       .  S
O384        C407   1.290       .  A
O384       Eu399   2.464       .  S
O385        C408   1.294       .  A
O385       Eu398   2.479       .  S
O386        C409   1.291       .  A
O386       Eu400   2.469       .  S
O387        C410   1.294       .  A
O387       Eu400   2.482       .  S
O388        C409   1.293       .  A
O388       Eu398   2.477       .  S
O389        C410   1.290       .  A
O389       Eu399   2.465       .  S
O390        C405   1.293       .  A
O390       Eu396   2.476       .  S
O391        C408   1.290       .  A
O391       Eu397   2.467       .  S
O392        C407   1.294       .  A
O392       Eu397   2.485       .  S
O393        C406   1.292       .  A
O393       Eu396   2.476       .  S
O394        C403   1.293       .  A
O394       Eu400   2.475       .  S
O395        C404   1.291       .  A
O395       Eu400   2.473       .  S
Eu396       O414   2.367       .  S
Eu396       O402   2.352       .  S
Eu397       O401   2.357       .  S
Eu397       O412   2.359       .  S
Eu398       O412   2.361       .  S
Eu398       O402   2.353       .  S
Eu399       O401   2.370       .  S
Eu399       O414   2.361       .  S
Eu400       O401   2.358       .  S
Eu400       O412   2.366       .  S
Eu400       O414   2.360       .  S
Eu400       O402   2.352       .  S
C403        C697   1.442       .  S
C404        C627   1.449   1_545  S
C405        C601   1.441       .  S
C406        C654   1.450       .  S
C407        C612   1.447       .  S
C408        C648   1.448       .  S
C409        C642   1.445       .  S
C410       C1464   1.447   1_545  S
H411        O412   0.964       .  S
H413        O414   0.964       .  S
O415        C426   1.294       .  A
O415       Eu451   2.481       .  S
O416        C427   1.289       .  A
O416       Eu450   2.458       .  S
O417        C428   1.294       .  A
O417       Eu423   2.479       .  S
O418        C429   1.290       .  A
O418       Eu423   2.467       .  S
O419        C429   1.294       .  A
O419       Eu453   2.478       .  S
O420        C428   1.290       .  A
O420       Eu452   2.466       .  S
O421        C427   1.294       .  A
O421       Eu423   2.480       .  S
O422        C426   1.291       .  A
O422       Eu423   2.474       .  S
Eu423       O433   2.367       .  S
Eu423       O425   2.358       .  S
Eu423       O424   2.351       .  S
Eu423       O431   2.359       .  S
O424       Eu453   2.355       .  S
O424       Eu450   2.355       .  S
O425       Eu451   2.357       .  S
O425       Eu452   2.369       .  S
C426        C751   1.450       .  S
C427        C667   1.441       .  S
C428        C681   1.446       .  S
C429        C607   1.443       .  S
H430        O431   0.964       .  S
O431       Eu452   2.361       .  S
O431       Eu450   2.365       .  S
H432        O433   0.964       .  S
O433       Eu451   2.360       .  S
O433       Eu453   2.359       .  S
O434        C457   1.294       .  A
O434       Eu450   2.479       .  S
O435        C458   1.289       .  A
O435       Eu451   2.455       .  S
O436        C459   1.294       .  A
O436       Eu452   2.481       .  S
O437        C460   1.290       .  A
O437       Eu453   2.464       .  S
O438        C461   1.294       .  A
O438       Eu453   2.483       .  S
O439        C462   1.289       .  A
O439       Eu452   2.459       .  S
O440        C463   1.289       .  A
O440       Eu454   2.457       .  S
O441        C464   1.293       .  A
O441       Eu454   2.477       .  S
O442        C463   1.295       .  A
O442       Eu452   2.490       .  S
O443        C464   1.292       .  A
O443       Eu453   2.477       .  S
O444        C459   1.292       .  A
O444       Eu450   2.481       .  S
O445        C462   1.294       .  A
O445       Eu451   2.480       .  S
O446        C461   1.290       .  A
O446       Eu451   2.468       .  S
O447        C460   1.293       .  A
O447       Eu450   2.476       .  S
O448        C457   1.290       .  A
O448       Eu454   2.465       .  S
O449        C458   1.295       .  A
O449       Eu454   2.487       .  S
Eu450       O468   2.361       .  S
Eu450       O456   2.356       .  S
Eu451       O455   2.371       .  S
Eu451       O466   2.359       .  S
Eu452       O466   2.355       .  S
Eu452       O456   2.356       .  S
Eu453       O455   2.359       .  S
Eu453       O468   2.367       .  S
Eu454       O455   2.358       .  S
Eu454       O466   2.357       .  S
Eu454       O468   2.361       .  S
Eu454       O456   2.373       .  S
C457        C747   1.446       .  S
C458        C693   1.444       .  S
C459        C622   1.452       .  S
C460        C728   1.443       .  S
C461        C617   1.449       .  S
C462        C741   1.442       .  S
C463        C581   1.443       .  S
C464        C680   1.451   1_455  S
H465        O466   0.965       .  S
H467        O468   0.964       .  S
O469        C480   1.289       .  A
O469       Eu505   2.455       .  S
O470        C481   1.294       .  A
O470       Eu504   2.478       .  S
O471        C482   1.294       .  A
O471       Eu477   2.480       .  S
O472        C483   1.290       .  A
O472       Eu477   2.463       .  S
O473        C483   1.294       .  A
O473       Eu507   2.481       .  S
O474        C482   1.293       .  A
O474       Eu506   2.481       .  S
O475        C481   1.290       .  A
O475       Eu477   2.464       .  S
O476        C480   1.295       .  A
O476       Eu477   2.490       .  S
Eu477       O487   2.354       .  S
Eu477       O479   2.356       .  S
Eu477       O478   2.369       .  S
Eu477       O485   2.362       .  S
O478       Eu507   2.358       .  S
O478       Eu504   2.357       .  S
O479       Eu505   2.373       .  S
O479       Eu506   2.356       .  S
C480        C720   1.443       .  S
C481        C644   1.445   1_455  S
C482        C704   1.452       .  S
C483        C587   1.444       .  S
H484        O485   0.964       .  S
O485       Eu506   2.365       .  S
O485       Eu504   2.361       .  S
H486        O487   0.965       .  S
O487       Eu505   2.358       .  S
O487       Eu507   2.357       .  S
O488        C511   1.290       .  A
O488       Eu504   2.465       .  S
O489        C512   1.293       .  A
O489       Eu505   2.476       .  S
O490        C513   1.289       .  A
O490       Eu506   2.461       .  S
O491        C514   1.294       .  A
O491       Eu507   2.478       .  S
O492        C515   1.289       .  A
O492       Eu507   2.459       .  S
O493        C516   1.294       .  A
O493       Eu506   2.479       .  S
O494        C517   1.291       .  A
O494       Eu508   2.470       .  S
O495        C518   1.295       .  A
O495       Eu508   2.488       .  S
O496        C517   1.293       .  A
O496       Eu506   2.477       .  S
O497        C518   1.291       .  A
O497       Eu507   2.469       .  S
O498        C513   1.294       .  A
O498       Eu504   2.480       .  S
O499        C516   1.290       .  A
O499       Eu505   2.465       .  S
O500        C515   1.295       .  A
O500       Eu505   2.489       .  S
O501        C514   1.291       .  A
O501       Eu504   2.475       .  S
O502        C511   1.293       .  A
O502       Eu508   2.478       .  S
O503        C512   1.292       .  A
O503       Eu508   2.474       .  S
Eu504       O522   2.367       .  S
Eu504       O510   2.350       .  S
Eu505       O509   2.358       .  S
Eu505       O520   2.361       .  S
Eu506       O520   2.361       .  S
Eu506       O510   2.355       .  S
Eu507       O509   2.372       .  S
Eu507       O522   2.362       .  S
Eu508       O509   2.361       .  S
Eu508       O520   2.367       .  S
Eu508       O522   2.360       .  S
Eu508       O510   2.354       .  S
C511        C709   1.443       .  S
C512        C639   1.450       .  S
C513        C649   1.442       .  S
C514        C598   1.449       .  S
C515        C659   1.446       .  S
C516        C604   1.447       .  S
C517        C634   1.445       .  S
C518        C699   1.451       .  S
H519        O520   0.964       .  S
H521        O522   0.964       .  S
O523       C1290   1.289       .  A
O523       Eu559   2.457       .  S
O524        C535   1.294       .  A
O524      Eu1314   2.482   1_545  S
O525       C1292   1.290       .  A
O525       Eu531   2.462       .  S
O526        C537   1.294   1_455  A
O526       Eu531   2.483       .  S
O527       C2049   1.289       .  A
O527       Eu561   2.462   1_545  S
O528        C536   1.293       .  A
O528      Eu2072   2.476       .  S
O529        C535   1.292       .  A
O529       Eu531   2.478       .  S
O530        C534   1.294       .  A
O530      Eu2043   2.478       .  S
Eu531      O2042   2.478   1_455  S
Eu531       O532   2.355       .  S
Eu531      O2053   2.360   1_445  S
Eu531      O2801   2.353   1_445  S
Eu531      O1295   2.368   1_545  S
O532      Eu2073   2.372   1_445  S
O532      Eu1314   2.358   1_545  S
O533       Eu559   2.352       .  S
O533       Eu560   2.353       .  S
O533      Eu2799   2.353       .  S
C534        C750   1.439       .  S
C534       O1279   1.289   1_545  A
C535        C671   1.450       .  S
C536        C620   1.441       .  S
C536       O1281   1.290       .  A
C537        C729   1.446       .  S
C537       O2039   1.289       .  A
H538        O539   0.964       .  S
O539       Eu558   2.360       .  S
O539      Eu1287   2.368       .  S
O539      Eu2072   2.360       .  S
H540        O541   0.964   1_545  S
O541       Eu561   2.361       .  S
O541      Eu2043   2.360   1_565  S
O541      Eu1315   2.366       .  S
O542       C2077   1.290       .  A
O542       Eu558   2.464       .  S
O543        C566   1.293       .  A
O543       Eu559   2.476       .  S
O544        C567   1.294       .  A
O544      Eu2072   2.480       .  S
O545        C568   1.289   1_655  A
O545      Eu2073   2.457   1_545  S
O546        C569   1.295       .  A
O546       Eu561   2.486       .  S
O547        C570   1.290       .  A
O547       Eu560   2.464       .  S
O548        C571   1.292       .  A
O548       Eu562   2.472       .  S
O549        C572   1.288       .  A
O549       Eu562   2.449       .  S
O550        C571   1.292       .  A
O550       Eu560   2.478       .  S
O551        C572   1.295       .  A
O551      Eu1317   2.486       .  S
O552        C567   1.290       .  A
O552       Eu558   2.464       .  S
O553        C570   1.293       .  A
O553       Eu559   2.477       .  S
O554       C1325   1.293       .  A
O554       Eu559   2.481       .  S
O555        C568   1.294       .  A
O555      Eu1314   2.478   1_545  S
O556        C565   1.294       .  A
O556       Eu562   2.483       .  S
O557        C566   1.291       .  A
O557       Eu562   2.470       .  S
Eu558      O1280   2.482       .  S
Eu558      O1311   2.478       .  S
Eu558      O1288   2.358       .  S
Eu558      O2088   2.357   1_455  S
Eu558      O2076   2.369       .  S
Eu559       O563   2.355       .  S
Eu559       O574   2.361       .  S
Eu559      O1297   2.366       .  S
Eu560      O2040   2.476       .  S
Eu560      O2056   2.480       .  S
Eu560       O574   2.365       .  S
Eu560       O564   2.356       .  S
Eu560      O2051   2.360       .  S
Eu561      O2057   2.457   1_565  S
Eu561      O1307   2.486       .  S
Eu561      O2044   2.372   1_565  S
Eu561      O1319   2.355       .  S
Eu561      O1332   2.358       .  S
Eu562       O563   2.372       .  S
Eu562       O574   2.358       .  S
Eu562       O576   2.358       .  S
Eu562       O564   2.357       .  S
O563      Eu1317   2.355       .  S
O564      Eu2070   2.369       .  S
C565        C712   1.446       .  S
C565       O2054   1.290       .  A
C566        C669   1.449       .  S
C567        C610   1.446       .  S
C568        C652   1.441       .  S
C569        C613   1.455       .  S
C569       O1310   1.293       .  A
C570        C684   1.443       .  S
C571        C732   1.450       .  S
C572        C630   1.440       .  S
H573        O574   0.964       .  S
H575        O576   0.965       .  S
O576      Eu2070   2.357       .  S
O576      Eu1317   2.358       .  S
C577        C578   1.211       .  T
C579        C580   1.213       .  T
C581        C582   1.210       .  T
C583        C584   1.214       .  T
C585        C586   1.218       .  T
C587        C588   1.210       .  T
C589        C590   1.214   1_455  T
C591        C592   1.212       .  T
C593        C594   1.209       .  T
C595        C596   1.220       .  T
C596       N1744   1.419       .  S
C597       C1731   1.449       .  S
C597        C598   1.213   1_655  T
C599        C600   1.209       .  T
C601        C602   1.209       .  T
C603        C604   1.212       .  T
C605        C606   1.220       .  T
C607        C608   1.210       .  T
C609        C610   1.212       .  T
C611        C612   1.213       .  T
C613        C614   1.217       .  T
C615        N953   1.417       .  S
C615        C616   1.218       .  T
C617        C618   1.214       .  T
C619        C620   1.209       .  T
C621        C622   1.215       .  T
C623        C624   1.211       .  T
C625        N946   1.417   1_545  S
C625        C626   1.219       .  T
C627        C628   1.214       .  T
C628        C933   1.450       .  S
C629        C630   1.209       .  T
C631        C632   1.213       .  T
C633        C634   1.211       .  T
C635        C636   1.219       .  T
C637        C638   1.211       .  T
C639        C640   1.214       .  T
C641        C642   1.211       .  T
C643       C2156   1.212       .  T
C644       C2155   1.212       .  T
C645        C646   1.220       .  T
C646        N918   1.418       .  S
C647       C1661   1.449       .  S
C647        C648   1.213       .  T
C649        C650   1.209       .  T
C651        C652   1.209       .  T
C653        C654   1.214       .  T
C655        C656   1.220       .  T
C657        C658   1.216       .  T
C659        C660   1.212       .  T
C661        C662   1.210       .  T
C663        C664   1.213       .  T
C665        C666   1.219       .  T
C666        N883   1.418       .  S
C667        C668   1.208       .  T
C669        C670   1.214       .  T
C671        C672   1.214       .  T
C673        C674   1.210       .  T
C675        C676   1.219       .  T
C677        C678   1.211       .  T
C679       C2192   1.215       .  T
C680       C2191   1.215       .  T
C681        C682   1.212       .  T
C683        C684   1.210       .  T
C685        C686   1.219       .  T
C687       C1444   1.213       .  T
C688       C1443   1.213       .  T
C689        C690   1.210       .  T
C691        C692   1.216       .  T
C692       C1598   1.453       .  S
C693        C694   1.211       .  T
C695        C696   1.219       .  T
C697        C698   1.210       .  T
C699        C700   1.215       .  T
C700        C835   1.451       .  S
C701        C702   1.212       .  T
C703        C704   1.216       .  T
C705        C706   1.219       .  T
C707        C708   1.213       .  T
C708       C1166   1.448       .  S
C709        C710   1.210       .  T
C711       C2224   1.212       .  T
C712       C2223   1.212       .  T
C713        C714   1.216       .  T
C715        C716   1.219       .  T
C717        C718   1.214       .  T
C719        C720   1.210       .  T
C721        C722   1.212       .  T
C723        C724   1.213       .  T
C725        C726   1.220       .  T
C727        C728   1.210       .  T
C729        C730   1.212   1_655  T
C731        C732   1.214       .  T
C733        C734   1.209       .  T
C735        C736   1.219       .  T
C736       N1548   1.418       .  S
C737        C738   1.211       .  T
C739        C740   1.208       .  T
C741        C742   1.209       .  T
C743        C744   1.214       .  T
C744       C1022   1.450       .  S
C745        C746   1.219       .  T
C747        C748   1.212   1_455  T
C748       C1521   1.447       .  S
C749        C750   1.208       .  T
C751        C752   1.214       .  T
C752        C758   1.450       .  S
C753        C754   1.209       .  T
C755        C756   1.219       .  T
N757        C761   1.355       .  A
N757        C758   1.359       .  A
N757       C1512   1.418       .  S
C758        C759   1.382       .  A
C759        C760   1.372       .  A
C760        C761   1.380       .  A
C760        H763   1.083       .  S
C761       C1509   1.443       .  S
N764        C768   1.353       .  A
N764        C765   1.357       .  A
N764       C1511   1.418       .  S
C765       C2278   1.382       .  A
C765       C3016   1.447       .  S
C766       C2277   1.382   1_455  A
C766       C2279   1.373   1_455  A
C766        H769   1.083       .  S
C767       C2278   1.373       .  A
C767        C768   1.381       .  A
C767       H2282   1.083       .  S
C768       C1505   1.441       .  S
H770       C2279   1.083       .  S
N771        C775   1.356       .  A
N771        C772   1.359       .  A
N771       C1502   1.418       .  S
C772        C773   1.381       .  A
C772       C1499   1.450       .  S
C773        C774   1.371       .  A
C773        H776   1.083       .  S
C774        C775   1.380       .  A
C774        H777   1.083       .  S
C775       C1498   1.443       .  S
N778        C782   1.354       .  A
N778        C779   1.357       .  A
N778       C1501   1.418       .  S
C779        C780   1.381       .  A
C779       C1494   1.446       .  S
C780        C781   1.372       .  A
C780        H783   1.083       .  S
C781        C782   1.380       .  A
C781        H784   1.083       .  S
C782       C1495   1.442       .  S
N785        C789   1.355       .  A
N785        C786   1.359       .  A
N785       C1491   1.417       .  S
C786        C787   1.382       .  A
C786       C1487   1.451       .  S
C787        C788   1.372       .  A
C787        H790   1.083       .  S
C788        C789   1.379       .  A
C788        H791   1.083       .  S
C789       C1490   1.443       .  S
N792        C796   1.355       .  A
N792        C793   1.358       .  A
N792       C3004   1.418   1_455  S
C793        C794   1.381       .  A
C793       C1486   1.447       .  S
C794        C795   1.372       .  A
C794        H797   1.083       .  S
C795        C796   1.380       .  A
C795        H798   1.083       .  S
C796       C1483   1.444       .  S
N799        C803   1.357       .  A
N799        C800   1.359       .  A
N799       C1481   1.419       .  S
C800        C801   1.381       .  A
C800       C1479   1.448       .  S
C801        C802   1.371       .  A
C801        H804   1.083       .  S
C802        C803   1.380       .  A
C802        H805   1.083       .  S
C803       C1477   1.447   1_554  S
N806        C810   1.356       .  A
N806        C807   1.360       .  A
N806       C1482   1.419       .  S
C807        C808   1.381       .  A
C807       C1473   1.450       .  S
C808        C809   1.371       .  A
C808        H811   1.083       .  S
C809        C810   1.380       .  A
C809        H812   1.083       .  S
C810       C1475   1.445       .  S
N813        C817   1.357       .  A
N813       C2326   1.360   1_455  A
N813       C1471   1.417       .  S
C814       N2325   1.360       .  A
C814        C815   1.381       .  A
C814       C1469   1.453       .  S
C815        C816   1.372       .  A
C815        H818   1.083       .  S
C816       C2329   1.380       .  A
C816        H819   1.083       .  S
C817       C2328   1.380   1_455  A
C817       C1467   1.448       .  S
N820        C824   1.355       .  A
N820        C821   1.358       .  A
N820       C1472   1.417       .  S
C821        C822   1.381       .  A
C821       C1463   1.448       .  S
C822        C823   1.372       .  A
C822        H825   1.083       .  S
C823        C824   1.380       .  A
C823        H826   1.083       .  S
C824       C1466   1.444       .  S
N827        C831   1.357       .  A
N827        C828   1.360       .  A
N827       C1462   1.418       .  S
C828        C829   1.381       .  A
C828       C1459   1.452       .  S
C829        C830   1.372       .  A
C829        H832   1.083       .  S
C830        C831   1.379       .  A
C830        H833   1.083       .  S
C831       C1458   1.447       .  S
N834        C838   1.355       .  A
N834        C835   1.359       .  A
N834       C1461   1.417       .  S
C835        C836   1.382       .  A
C836        C837   1.373       .  A
C837        C838   1.380       .  A
C837        H840   1.083       .  S
C838       C1454   1.444       .  S
N841        C845   1.356       .  A
N841        C842   1.360       .  A
N841       C1451   1.418       .  S
C842        C843   1.382       .  A
C842       C2960   1.453   1_455  S
C843        C844   1.372       .  A
C843        H846   1.083       .  S
C844        C845   1.379       .  A
C844        H847   1.083       .  S
C845       C1450   1.446       .  S
N848        C852   1.355       .  A
N848        C849   1.358       .  A
N848       C1452   1.417       .  S
C849        C850   1.382       .  A
C849       C1443   1.449       .  S
C850        C851   1.373       .  A
C851        C852   1.380       .  A
C851        H854   1.083       .  S
C852       C1445   1.445       .  S
N855        C859   1.355       .  A
N855        C856   1.358       .  A
N855       C1441   1.417       .  S
C856        C857   1.381       .  A
C856       C1438   1.447       .  S
C857        C858   1.372       .  A
C857        H860   1.083       .  S
C858        C859   1.380       .  A
C858        H861   1.083       .  S
C859       C1439   1.445       .  S
N862        C866   1.355       .  A
N862        C863   1.360       .  A
N862       C1442   1.418       .  S
C863        C864   1.382       .  A
C863       C1435   1.451       .  S
C864        C865   1.372       .  A
C864        H867   1.083       .  S
C865        C866   1.379       .  A
C865        H868   1.083       .  S
C866       C1433   1.445       .  S
N869        C873   1.355       .  A
N869        C870   1.359       .  A
N869       C1431   1.417       .  S
C870        C871   1.382       .  A
C870       C1428   1.450       .  S
C871        C872   1.372       .  A
C871        H874   1.083       .  S
C872        C873   1.380       .  A
C872        H875   1.083       .  S
C873       C1430   1.444       .  S
N876        C880   1.354       .  A
N876        C877   1.359       .  A
N876       C1432   1.418       .  S
C877        C878   1.382       .  A
C877       C1426   1.449       .  S
C878        C879   1.372       .  A
C878        H881   1.083       .  S
C879        C880   1.380       .  A
C879        H882   1.083       .  S
C880       C1424   1.442       .  S
N883        C887   1.355       .  A
C884       C1420   1.449   1_545  S
C885        C886   1.373       .  A
C885        H888   1.083       .  S
C886        C887   1.381       .  A
C886        H889   1.083       .  S
C887       C1417   1.445   1_554  S
N890        C894   1.357       .  A
N890        C891   1.360       .  A
N890       C1421   1.418       .  S
C891        C892   1.381       .  A
C891       C1413   1.454       .  S
C892        C893   1.372       .  A
C892        H895   1.083       .  S
C893        C894   1.380       .  A
C893        H896   1.083       .  S
C894       C1416   1.448       .  S
N897        C901   1.356       .  A
N897        C898   1.359       .  A
N897       C1411   1.419       .  S
C898        C899   1.382       .  A
C898       C1409   1.449       .  S
C899        C900   1.371       .  A
C899        H902   1.083       .  S
C900        C901   1.379       .  A
C900        H903   1.083       .  S
C901       C1407   1.443       .  S
N904        C908   1.355       .  A
N904        C905   1.359       .  A
N904       C1412   1.419       .  S
C905        C906   1.382       .  A
C905       C2915   1.449   1_455  S
C906        C907   1.371       .  A
C906       H2421   1.083       .  S
C907        C908   1.380       .  A
C907        H910   1.083       .  S
C908       C1406   1.443       .  S
H909       C2418   1.083       .  S
N911        C915   1.358       .  A
N911        C912   1.356       .  A
N911       C1401   1.418       .  S
C912        C913   1.380       .  A
C912       C1397   1.447       .  S
C913        C914   1.372       .  A
C913        H916   1.083       .  S
C914        C915   1.381       .  A
C914        H917   1.083       .  S
C915       C1399   1.447       .  S
N918        C922   1.356   1_545  A
N918        C919   1.359   1_545  A
C919        C920   1.381       .  A
C919       C1396   1.451       .  S
C920        C921   1.372       .  A
C920        H923   1.083       .  S
C921        C922   1.380       .  A
C921        H924   1.083       .  S
C922       C1393   1.446   1_565  S
N925        C929   1.355       .  A
N925        C926   1.358       .  A
N925       C1391   1.418       .  S
C926        C927   1.382       .  A
C926       C1387   1.449       .  S
C927        C928   1.372       .  A
C927        H930   1.083       .  S
C928        C929   1.380       .  A
C928        H931   1.083       .  S
C929       C1389   1.446       .  S
N932        C936   1.355       .  A
N932        C933   1.359       .  A
N932       C1392   1.417       .  S
C933        C934   1.381       .  A
C934        C935   1.372       .  A
C935        C936   1.380       .  A
C935        H938   1.083       .  S
C936       C1385   1.443       .  S
N939        C943   1.356       .  A
N939        C940   1.360       .  A
N939       C1382   1.418       .  S
C940        C941   1.382       .  A
C940       C1377   1.452       .  S
C941        C942   1.372       .  A
C941        H944   1.083       .  S
C942        C943   1.379       .  A
C942        H945   1.083       .  S
C943       C1379   1.446       .  S
N946        C950   1.354       .  A
N946        C947   1.359       .  A
C947        C948   1.382       .  A
C947       C1374   1.449       .  S
C948        C949   1.372       .  A
C948        H951   1.083       .  S
C949        C950   1.380       .  A
C949        H952   1.083       .  S
C950       C1375   1.443   1_565  S
N953        C957   1.357       .  A
N953        C954   1.360       .  A
C954        C955   1.381       .  A
C954       C1370   1.455       .  S
C955        C956   1.373       .  A
C955        H958   1.083       .  S
C956        C957   1.380       .  A
C956        H959   1.083       .  S
C957       C1367   1.449       .  S
N960        C964   1.354       .  A
N960        C961   1.357       .  A
N960       C1372   1.417       .  S
C961        C962   1.382       .  A
C961       C1365   1.447       .  S
C962        C963   1.372       .  A
C962        H965   1.083       .  S
C963        C964   1.380       .  A
C963        H966   1.083       .  S
C964       C1364   1.445       .  S
N967        C971   1.354       .  A
N967        C968   1.358       .  A
N967       C1362   1.418       .  S
C968        C969   1.382       .  A
C968       C1359   1.448       .  S
C969        C970   1.372       .  A
C969        H972   1.083       .  S
C970        C971   1.380       .  A
C970        H973   1.083       .  S
C971       C1358   1.442       .  S
N974        C978   1.355       .  A
N974        C975   1.359       .  A
N974       C1361   1.419       .  S
C975       C2488   1.382       .  A
C975       C2865   1.448       .  S
C976       C2487   1.382   1_455  A
C976       C2489   1.371   1_455  A
C976        H979   1.083       .  S
C977       C2488   1.371       .  A
C977        C978   1.379       .  A
C977       H2492   1.083       .  S
C978       C1355   1.442       .  S
H980       C2489   1.083       .  S
N981        C985   1.355       .  A
N981        C982   1.358       .  A
N981       C1351   1.419       .  S
C982        C983   1.381       .  A
C982       C1348   1.448       .  S
C983        C984   1.371       .  A
C983        H986   1.083       .  S
C984        C985   1.380       .  A
C984        H987   1.083       .  S
C985       C1350   1.442   1_554  S
N988        C992   1.356       .  A
N988        C989   1.360       .  A
N988       C2864   1.419   1_455  S
C989        C990   1.381       .  A
C989       C1345   1.450       .  S
C990        C991   1.371       .  A
C990        H993   1.083       .  S
C991        C992   1.380       .  A
C991        H994   1.083       .  S
C992       C1344   1.445       .  S
N995        C999   1.356       .  A
N995        C996   1.360       .  A
N995       C1341   1.417       .  S
C996        C997   1.381       .  A
C996       C1339   1.451       .  S
C997        C998   1.371       .  A
C997       H1000   1.083       .  S
C998        C999   1.379       .  A
C998       H1001   1.083       .  S
C999       C1338   1.445       .  S
N1002      C2518   1.356       .  A
N1002      C2515   1.359   1_455  A
N1002      C1342   1.417       .  S
C1003      N2514   1.359       .  A
C1003      C1004   1.381       .  A
C1003      C1335   1.449       .  S
C1004      C1005   1.372       .  A
C1004      H1007   1.083       .  S
C1005      C1006   1.380       .  A
C1005      H1008   1.083       .  S
C1006      N2514   1.356       .  A
C1006      C1333   1.447       .  S
O1009      C1020   1.288       .  A
O1009     Eu1045   2.455       .  S
O1010      C1021   1.294       .  A
O1010     Eu1044   2.482       .  S
O1011      C1022   1.294       .  A
O1011     Eu1017   2.482       .  S
O1012      C1023   1.289       .  A
O1012     Eu1017   2.459       .  S
O1013      C1023   1.294       .  A
O1013     Eu1047   2.483       .  S
O1014      C1022   1.292       .  A
O1014     Eu1046   2.475       .  S
O1015      C1021   1.291       .  A
O1015     Eu1017   2.468       .  S
O1016      C1020   1.294       .  A
O1016     Eu1017   2.481       .  S
Eu1017     O1027   2.360       .  S
Eu1017     O1019   2.357       .  S
Eu1017     O1018   2.371       .  S
Eu1017     O1025   2.362       .  S
O1018     Eu1047   2.358       .  S
O1018     Eu1044   2.359       .  S
O1019     Eu1045   2.370       .  S
O1019     Eu1046   2.357       .  S
C1020      C1510   1.441       .  S
C1021      C1444   1.449       .  S
C1023      C1380   1.444       .  S
H1024      O1025   0.964       .  S
O1025     Eu1046   2.369       .  S
O1025     Eu1044   2.361       .  S
H1026      O1027   0.965       .  S
O1027     Eu1045   2.355       .  S
O1027     Eu1047   2.357       .  S
O1028      C1051   1.291       .  A
O1028     Eu1044   2.468       .  S
O1029      C1052   1.293       .  A
O1029     Eu1045   2.478       .  S
O1030      C1053   1.290       .  A
O1030     Eu1046   2.467       .  S
O1031      C1054   1.293       .  A
O1031     Eu1047   2.477       .  S
O1032      C1055   1.289       .  A
O1032     Eu1047   2.461       .  S
O1033      C1056   1.294       .  A
O1033     Eu1046   2.482       .  S
O1034      C1057   1.289       .  A
O1034     Eu1048   2.458       .  S
O1035      C1058   1.293       .  A
O1035     Eu1048   2.473       .  S
O1036      C1057   1.294       .  A
O1036     Eu1046   2.481       .  S
O1037      C1058   1.290       .  A
O1037     Eu1047   2.466       .  S
O1038      C1053   1.293       .  A
O1038     Eu1044   2.477       .  S
O1039      C1056   1.290       .  A
O1039     Eu1045   2.466       .  S
O1040      C1055   1.294       .  A
O1040     Eu1045   2.487       .  S
O1041      C1054   1.292       .  A
O1041     Eu1044   2.476       .  S
O1042      C1051   1.294       .  A
O1042     Eu1048   2.480       .  S
O1043      C1052   1.293       .  A
O1043     Eu1048   2.480       .  S
Eu1044     O1062   2.366       .  S
Eu1044     O1050   2.354       .  S
Eu1045     O1049   2.356       .  S
Eu1045     O1060   2.361       .  S
Eu1046     O1060   2.359       .  S
Eu1046     O1050   2.351       .  S
Eu1047     O1049   2.370       .  S
Eu1047     O1062   2.360       .  S
Eu1048     O1049   2.357       .  S
Eu1048     O1060   2.365       .  S
Eu1048     O1062   2.361       .  S
Eu1048     O1050   2.352       .  S
C1051      C1478   1.446       .  S
C1052      C1447   1.452       .  S
C1053      C1418   1.443       .  S
C1054      C1340   1.450       .  S
C1055      C1434   1.444       .  S
C1056      C1336   1.448       .  S
C1057      C1349   1.441       .  S
C1058      C1493   1.445       .  S
H1059      O1060   0.964       .  S
H1061      O1062   0.964       .  S
O1063      C1074   1.288       .  A
O1063     Eu1099   2.456   1_556  S
O1064      C1075   1.294   1_455  A
O1064     Eu1098   2.482       .  S
O1065      C2588   1.290       .  A
O1065     Eu1071   2.466   1_556  S
O1066      C1077   1.294       .  A
O1066     Eu1071   2.482       .  S
O1067      C1077   1.290       .  A
O1067     Eu1101   2.465       .  S
O1068      C1076   1.294       .  A
O1068     Eu1100   2.479   1_556  S
O1069      C2587   1.292       .  A
O1069     Eu1071   2.476       .  S
O1070      C1074   1.294       .  A
O1070     Eu1071   2.481   1_556  S
Eu1071     O1081   2.359       .  S
Eu1071     O1073   2.350   1_554  S
Eu1071     O1072   2.356       .  S
Eu1071     O2591   2.370       .  S
O1072     Eu1101   2.370       .  S
O1072     Eu2610   2.358       .  S
O1073     Eu1099   2.351   1_556  S
O1073     Eu2612   2.353   1_556  S
C1074      C1496   1.440       .  S
C1075      C1346   1.450       .  S
C1075      O2581   1.292       .  A
C1076      C1446   1.443       .  S
C1076      O2577   1.290   1_455  A
C1077      C1480   1.447       .  S
H1078      O1079   0.964       .  S
O1079     Eu2583   2.370   1_455  S
O1079     Eu1100   2.362       .  S
O1079     Eu1098   2.363       .  S
H1080      O1081   0.964       .  S
O1081     Eu1099   2.367       .  S
O1081     Eu1101   2.360       .  S
O1082     Eu1098   2.463       .  S
O1083      C1106   1.293       .  A
O1084      C1107   1.294       .  A
O1084     Eu1100   2.484       .  S
O1085      C1108   1.288       .  A
O1085     Eu1101   2.454       .  S
O1086      C1109   1.294       .  A
O1086     Eu1101   2.482       .  S
O1087      C2622   1.291       .  A
O1088      C1111   1.292       .  A
O1088     Eu2614   2.471       .  S
O1089      C1112   1.289       .  A
O1090      C1111   1.292       .  A
O1091      C1112   1.295   1_565  A
O1091     Eu1101   2.487       .  S
O1092      C1107   1.290       .  A
O1092     Eu1098   2.467       .  S
O1093      C1110   1.294       .  A
O1094      C1109   1.292       .  A
O1094     Eu1099   2.479       .  S
O1095      C1108   1.294       .  A
O1095     Eu2610   2.481       .  S
O1096      C1105   1.295       .  A
O1096     Eu2614   2.486       .  S
O1097      C1106   1.291       .  A
O1097     Eu1102   2.470       .  S
Eu1098     O2607   2.481   1_455  S
Eu1098     O2584   2.358   1_455  S
Eu1098     O2628   2.358   1_455  S
Eu1098     O1104   2.371       .  S
Eu1099     O1103   2.356       .  S
Eu1100     O2585   2.353   1_454  S
Eu1100     O1870   2.367   1_565  S
Eu1100     O1104   2.359       .  S
Eu1101     O1103   2.355       .  S
Eu1101     O1116   2.357       .  S
Eu1102     O2600   2.471       .  S
Eu1102     O2608   2.486       .  S
Eu1102     O1114   2.361       .  S
Eu1102     O1860   2.360       .  S
O1104     Eu1858   2.360   1_565  S
C1105      C1457   1.446       .  S
C1106      C1347   1.447       .  S
C1107      C1419   1.448       .  S
C1108      C1356   1.440       .  S
C1109      C1414   1.453       .  S
C1110      C1334   1.445       .  S
C1110      O2599   1.291       .  A
C1111      C1474   1.449       .  S
C1112      C1394   1.444       .  S
H1113      O1114   0.964       .  S
O1114     Eu1856   2.367       .  S
H1115      O1116   0.965       .  S
O1116     Eu2610   2.358       .  S
O1117      C1128   1.288       .  A
O1117     Eu1153   2.451       .  S
O1118      C1129   1.295       .  A
O1118     Eu1152   2.486       .  S
O1119      C1130   1.294       .  A
O1119     Eu1125   2.479       .  S
O1120      C1131   1.289       .  A
O1120     Eu1125   2.459       .  S
O1121      C1131   1.294       .  A
O1121     Eu1155   2.480       .  S
O1122      C1130   1.293       .  A
O1122     Eu1154   2.481       .  S
O1123      C1129   1.290       .  A
O1123     Eu1125   2.465       .  S
O1124      C1128   1.295       .  A
O1124     Eu1125   2.489       .  S
Eu1125     O1135   2.356       .  S
Eu1125     O1127   2.356       .  S
Eu1125     O1126   2.371       .  S
Eu1125     O1133   2.363       .  S
O1126     Eu1155   2.358       .  S
O1126     Eu1152   2.357       .  S
O1127     Eu1153   2.372       .  S
O1127     Eu1154   2.355       .  S
C1128      C1489   1.441       .  S
C1129      C1388   1.448       .  S
C1130      C1470   1.453       .  S
C1131      C1429   1.442       .  S
H1132      O1133   0.964       .  S
O1133     Eu1154   2.367       .  S
O1133     Eu1152   2.362       .  S
H1134      O1135   0.965       .  S
O1135     Eu1153   2.359       .  S
O1135     Eu1155   2.357       .  S
O1136      C1159   1.291       .  A
O1136     Eu1152   2.468       .  S
O1137      C1160   1.293       .  A
O1137     Eu1153   2.476       .  S
O1138      C1161   1.289       .  A
O1138     Eu1154   2.461       .  S
O1139      C1162   1.294       .  A
O1139     Eu1155   2.482       .  S
O1140      C1163   1.290       .  A
O1140     Eu1155   2.464       .  S
O1141      C1164   1.294       .  A
O1141     Eu1154   2.479       .  S
O1142      C1165   1.291       .  A
O1142     Eu1156   2.469       .  S
O1143      C1166   1.294       .  A
O1143     Eu1156   2.482       .  S
O1144      C1165   1.293       .  A
O1144     Eu1154   2.477       .  S
O1145      C1166   1.290       .  A
O1145     Eu1155   2.465       .  S
O1146      C1161   1.293       .  A
O1146     Eu1152   2.476       .  S
O1147      C1164   1.290       .  A
O1147     Eu1153   2.467       .  S
O1148      C1163   1.294       .  A
O1148     Eu1153   2.485       .  S
O1149      C1162   1.292       .  A
O1149     Eu1152   2.476       .  S
O1150      C1159   1.293       .  A
O1150     Eu1156   2.475       .  S
O1151      C1160   1.291       .  A
O1151     Eu1156   2.473       .  S
Eu1152     O1170   2.367       .  S
Eu1152     O1158   2.352       .  S
Eu1153     O1157   2.357       .  S
Eu1153     O1168   2.359       .  S
Eu1154     O1168   2.361       .  S
Eu1154     O1158   2.353       .  S
Eu1155     O1157   2.370       .  S
Eu1155     O1170   2.361       .  S
Eu1156     O1157   2.358       .  S
Eu1156     O1168   2.366       .  S
Eu1156     O1170   2.360       .  S
Eu1156     O1158   2.352       .  S
C1159      C1453   1.442       .  S
C1160      C1383   1.449       .  S
C1161      C1357   1.441       .  S
C1162      C1410   1.450       .  S
C1163      C1368   1.447       .  S
C1164      C1404   1.448       .  S
C1165      C1398   1.445       .  S
H1167      O1168   0.964       .  S
H1169      O1170   0.964       .  S
O1171      C1182   1.294       .  A
O1171     Eu1207   2.481       .  S
O1172      C1183   1.289       .  A
O1172     Eu1206   2.458       .  S
O1173      C1184   1.294       .  A
O1173     Eu1179   2.479       .  S
O1174      C1185   1.290       .  A
O1174     Eu1179   2.467       .  S
O1175      C1185   1.294       .  A
O1175     Eu1209   2.479       .  S
O1176      C1184   1.290       .  A
O1176     Eu1208   2.465       .  S
O1177      C1183   1.294       .  A
O1177     Eu1179   2.480       .  S
O1178      C1182   1.291       .  A
O1178     Eu1179   2.474       .  S
Eu1179     O1189   2.367       .  S
Eu1179     O1181   2.358       .  S
Eu1179     O1180   2.351       .  S
Eu1179     O1187   2.359       .  S
O1180     Eu1209   2.355       .  S
O1180     Eu1206   2.355       .  S
O1181     Eu1207   2.357       .  S
O1181     Eu1208   2.369       .  S
C1182      C1507   1.450       .  S
C1183      C1423   1.441       .  S
C1184      C1437   1.446       .  S
C1185      C1363   1.443       .  S
H1186      O1187   0.964       .  S
O1187     Eu1208   2.361       .  S
O1187     Eu1206   2.365       .  S
H1188      O1189   0.964       .  S
O1189     Eu1207   2.360       .  S
O1189     Eu1209   2.359       .  S
O1190      C1213   1.294       .  A
O1190     Eu1206   2.479       .  S
O1191      C1214   1.289       .  A
O1191     Eu1207   2.455       .  S
O1192      C1215   1.294       .  A
O1192     Eu1208   2.481       .  S
O1193      C1216   1.290       .  A
O1193     Eu1209   2.464       .  S
O1194      C1217   1.294       .  A
O1194     Eu1209   2.483       .  S
O1195      C1218   1.289       .  A
O1195     Eu1208   2.459       .  S
O1196      C1219   1.289       .  A
O1196     Eu1210   2.457       .  S
O1197      C1220   1.293       .  A
O1197     Eu1210   2.476       .  S
O1198      C1219   1.295       .  A
O1198     Eu1208   2.490       .  S
O1199      C1220   1.292       .  A
O1199     Eu1209   2.477       .  S
O1200      C1215   1.292       .  A
O1200     Eu1206   2.481       .  S
O1201      C1218   1.294       .  A
O1201     Eu1207   2.480       .  S
O1202      C1217   1.291       .  A
O1202     Eu1207   2.468       .  S
O1203      C1216   1.293       .  A
O1203     Eu1206   2.476       .  S
O1204      C1213   1.290       .  A
O1204     Eu1210   2.465       .  S
O1205      C1214   1.295       .  A
O1205     Eu1210   2.487       .  S
Eu1206     O1224   2.361       .  S
Eu1206     O1212   2.356       .  S
Eu1207     O1211   2.371       .  S
Eu1207     O1222   2.359       .  S
Eu1208     O1222   2.355       .  S
Eu1208     O1212   2.356       .  S
Eu1209     O1211   2.359       .  S
Eu1209     O1224   2.367       .  S
Eu1210     O1211   2.358       .  S
Eu1210     O1222   2.357       .  S
Eu1210     O1224   2.361       .  S
Eu1210     O1212   2.373       .  S
C1213      C1503   1.446       .  S
C1214      C1449   1.444       .  S
C1215      C1378   1.452       .  S
C1216      C1484   1.443       .  S
C1217      C1373   1.449       .  S
C1218      C1497   1.442       .  S
C1219      C1337   1.443       .  S
C1220      C1436   1.450   1_455  S
H1221      O1222   0.965       .  S
H1223      O1224   0.964       .  S
O1225      C1236   1.289       .  A
O1225     Eu1261   2.455       .  S
O1226      C1237   1.294       .  A
O1226     Eu1260   2.478       .  S
O1227      C1238   1.294       .  A
O1227     Eu1233   2.480       .  S
O1228      C1239   1.290       .  A
O1228     Eu1233   2.463       .  S
O1229      C1239   1.294       .  A
O1229     Eu1263   2.481       .  S
O1230      C1238   1.293       .  A
O1230     Eu1262   2.481       .  S
O1231      C1237   1.290       .  A
O1231     Eu1233   2.464       .  S
O1232      C1236   1.295       .  A
O1232     Eu1233   2.489       .  S
Eu1233     O1243   2.354       .  S
Eu1233     O1235   2.357       .  S
Eu1233     O1234   2.368       .  S
Eu1233     O1241   2.362       .  S
O1234     Eu1263   2.358       .  S
O1234     Eu1260   2.358       .  S
O1235     Eu1261   2.373       .  S
O1235     Eu1262   2.356       .  S
C1236      C1476   1.443       .  S
C1237      C1400   1.445   1_455  S
C1238      C1460   1.452       .  S
C1239      C1343   1.444       .  S
H1240      O1241   0.964       .  S
O1241     Eu1262   2.365       .  S
O1241     Eu1260   2.361       .  S
H1242      O1243   0.965       .  S
O1243     Eu1261   2.358       .  S
O1243     Eu1263   2.357       .  S
O1244      C1267   1.290       .  A
O1244     Eu1260   2.465       .  S
O1245      C1268   1.293       .  A
O1245     Eu1261   2.476       .  S
O1246      C1269   1.289       .  A
O1246     Eu1262   2.461       .  S
O1247      C1270   1.294       .  A
O1247     Eu1263   2.478       .  S
O1248      C1271   1.289       .  A
O1248     Eu1263   2.459       .  S
O1249      C1272   1.294       .  A
O1249     Eu1262   2.479       .  S
O1250      C1273   1.291       .  A
O1250     Eu1264   2.470       .  S
O1251      C1274   1.295       .  A
O1251     Eu1264   2.488       .  S
O1252      C1273   1.293       .  A
O1252     Eu1262   2.477       .  S
O1253      C1274   1.291       .  A
O1253     Eu1263   2.468       .  S
O1254      C1269   1.294       .  A
O1254     Eu1260   2.480       .  S
O1255      C1272   1.290       .  A
O1255     Eu1261   2.465       .  S
O1256      C1271   1.295       .  A
O1256     Eu1261   2.489       .  S
O1257      C1270   1.291       .  A
O1257     Eu1260   2.475       .  S
O1258      C1267   1.293       .  A
O1258     Eu1264   2.478       .  S
O1259      C1268   1.292       .  A
O1259     Eu1264   2.474       .  S
Eu1260     O1278   2.367       .  S
Eu1260     O1266   2.350       .  S
Eu1261     O1265   2.358       .  S
Eu1261     O1276   2.361       .  S
Eu1262     O1276   2.361       .  S
Eu1262     O1266   2.355       .  S
Eu1263     O1265   2.372       .  S
Eu1263     O1278   2.363       .  S
Eu1264     O1265   2.361       .  S
Eu1264     O1276   2.367       .  S
Eu1264     O1278   2.360       .  S
Eu1264     O1266   2.354       .  S
C1267      C1465   1.443       .  S
C1268      C1395   1.449       .  S
C1269      C1405   1.442       .  S
C1270      C1354   1.449       .  S
C1271      C1415   1.446       .  S
C1272      C1360   1.447       .  S
C1273      C1390   1.445       .  S
C1274      C1455   1.451       .  S
H1275      O1276   0.964       .  S
H1277      O1278   0.964       .  S
O1279     Eu1315   2.457       .  S
O1280      C1291   1.294       .  A
O1281     Eu1287   2.462       .  S
O1282      C1293   1.294   1_455  A
O1282     Eu1287   2.483       .  S
O1283      C2805   1.289       .  A
O1283     Eu1317   2.462       .  S
O1284      C1292   1.293   1_565  A
O1284     Eu2828   2.476       .  S
O1285      C1291   1.292       .  A
O1285     Eu1287   2.478       .  S
O1286      C1290   1.294       .  A
O1286     Eu2799   2.478       .  S
Eu1287     O2798   2.478   1_455  S
Eu1287     O2809   2.360   1_455  S
Eu1287     O2045   2.353   1_455  S
Eu1287     O1288   2.355       .  S
O1288     Eu2829   2.372   1_455  S
O1289     Eu2043   2.353   1_565  S
O1289     Eu1315   2.352       .  S
O1289     Eu1316   2.353       .  S
C1290      C1506   1.439       .  S
C1291      C1427   1.450       .  S
C1292      C1376   1.441       .  S
C1293      C1485   1.446       .  S
C1293      O2795   1.289       .  A
H1294      O1295   0.964   1_545  S
O1295     Eu2828   2.360       .  S
O1295     Eu1314   2.360       .  S
H1296      O1297   0.964       .  S
O1297     Eu2799   2.360       .  S
O1297     Eu1317   2.361       .  S
O1298      C2833   1.290       .  A
O1298     Eu1314   2.464       .  S
O1299      C1322   1.293       .  A
O1299     Eu1315   2.476       .  S
O1300      C1323   1.294       .  A
O1300     Eu2828   2.480       .  S
O1301      C1324   1.289   1_655  A
O1301     Eu2829   2.457       .  S
O1302      C1325   1.295       .  A
O1302     Eu1317   2.486       .  S
O1303      C1326   1.290       .  A
O1303     Eu1316   2.464       .  S
O1304      C1327   1.292       .  A
O1304     Eu1318   2.472       .  S
O1305      C1328   1.288       .  A
O1305     Eu1318   2.449       .  S
O1306      C1327   1.292       .  A
O1306     Eu1316   2.478       .  S
O1307      C1328   1.295       .  A
O1308      C1323   1.290       .  A
O1308     Eu1314   2.464       .  S
O1309      C1326   1.293       .  A
O1309     Eu1315   2.477       .  S
O1310     Eu1315   2.481       .  S
O1311      C1324   1.294       .  A
O1312      C1321   1.294       .  A
O1312     Eu1318   2.483       .  S
O1313      C1322   1.291       .  A
O1313     Eu1318   2.470       .  S
Eu1314     O2844   2.357   1_455  S
Eu1314     O2832   2.369       .  S
Eu1315     O1319   2.355       .  S
Eu1315     O1330   2.360       .  S
Eu1316     O2796   2.476       .  S
Eu1316     O2812   2.480       .  S
Eu1316     O2807   2.360       .  S
Eu1316     O1330   2.365       .  S
Eu1316     O1320   2.356       .  S
Eu1317     O2813   2.457       .  S
Eu1317     O2800   2.372       .  S
Eu1318     O1319   2.372       .  S
Eu1318     O1330   2.358       .  S
Eu1318     O1332   2.358       .  S
Eu1318     O1320   2.357       .  S
O1320     Eu2826   2.369       .  S
C1321      C1468   1.446       .  S
C1321      O2810   1.290       .  A
C1322      C1425   1.449       .  S
C1323      C1366   1.446       .  S
C1324      C1408   1.441       .  S
C1325      C1369   1.455       .  S
C1326      C1440   1.443       .  S
C1327      C1488   1.450       .  S
C1328      C1386   1.440       .  S
H1329      O1330   0.964       .  S
H1331      O1332   0.965       .  S
O1332     Eu2826   2.357       .  S
C1333      C1334   1.211       .  T
C1335      C1336   1.213       .  T
C1337      C1338   1.210       .  T
C1339      C1340   1.214       .  T
C1341      C1342   1.218       .  T
C1343      C1344   1.210       .  T
C1345      C1346   1.214   1_455  T
C1347      C1348   1.212       .  T
C1349      C1350   1.209       .  T
C1351      C1352   1.220       .  T
C1352      N2500   1.419       .  S
C1353      C2487   1.448       .  S
C1353      C1354   1.213   1_655  T
C1355      C1356   1.208       .  T
C1357      C1358   1.209       .  T
C1359      C1360   1.212       .  T
C1361      C1362   1.220       .  T
C1363      C1364   1.210       .  T
C1365      C1366   1.212       .  T
C1367      C1368   1.213       .  T
C1369      C1370   1.217       .  T
C1371      C1372   1.218       .  T
C1373      C1374   1.214       .  T
C1375      C1376   1.209       .  T
C1377      C1378   1.216       .  T
C1379      C1380   1.211       .  T
C1381      C1382   1.219       .  T
C1383      C1384   1.214       .  T
C1385      C1386   1.209       .  T
C1387      C1388   1.213       .  T
C1389      C1390   1.211       .  T
C1391      C1392   1.219       .  T
C1393      C1394   1.211       .  T
C1395      C1396   1.214       .  T
C1397      C1398   1.211       .  T
C1399      C2912   1.212       .  T
C1400      C2911   1.212       .  T
C1401      C1402   1.220       .  T
C1403      C2417   1.449       .  S
C1403      C1404   1.213       .  T
C1405      C1406   1.209       .  T
C1407      C1408   1.209       .  T
C1409      C1410   1.214       .  T
C1411      C1412   1.220       .  T
C1413      C1414   1.216       .  T
C1415      C1416   1.212       .  T
C1417      C1418   1.210       .  T
C1419      C1420   1.213       .  T
C1421      C1422   1.219       .  T
C1423      C1424   1.208       .  T
C1425      C1426   1.214       .  T
C1427      C1428   1.214       .  T
C1429      C1430   1.210       .  T
C1431      C1432   1.219       .  T
C1433      C1434   1.211       .  T
C1435      C2948   1.215       .  T
C1436      C2947   1.215       .  T
C1437      C1438   1.212       .  T
C1439      C1440   1.210       .  T
C1441      C1442   1.219       .  T
C1445      C1446   1.210       .  T
C1447      C1448   1.216       .  T
C1448      C2354   1.453       .  S
C1449      C1450   1.211       .  T
C1451      C1452   1.219       .  T
C1453      C1454   1.210       .  T
C1455      C1456   1.215       .  T
C1457      C1458   1.212       .  T
C1459      C1460   1.216       .  T
C1461      C1462   1.219       .  T
C1463      C1464   1.213       .  T
C1465      C1466   1.210       .  T
C1467      C2980   1.212       .  T
C1468      C2979   1.212       .  T
C1469      C1470   1.216       .  T
C1471      C1472   1.219       .  T
C1473      C1474   1.214       .  T
C1475      C1476   1.210       .  T
C1477      C1478   1.212       .  T
C1479      C1480   1.213       .  T
C1481      C1482   1.220       .  T
C1483      C1484   1.210       .  T
C1485      C1486   1.212   1_655  T
C1487      C1488   1.214       .  T
C1489      C1490   1.209       .  T
C1491      C1492   1.219       .  T
C1492      N2304   1.418       .  S
C1493      C1494   1.211       .  T
C1495      C1496   1.208       .  T
C1497      C1498   1.209       .  T
C1499      C1500   1.214       .  T
C1501      C1502   1.219       .  T
C1503      C1504   1.212   1_455  T
C1504      C2277   1.447       .  S
C1505      C1506   1.208       .  T
C1507      C1508   1.214       .  T
C1509      C1510   1.209       .  T
C1511      C1512   1.219       .  T
N1513      C1517   1.355       .  A
N1513      C1514   1.359       .  A
N1513      C2268   1.418       .  S
C1514      C1515   1.382       .  A
C1514      C3020   1.450   1_545  S
C1515      C1516   1.372       .  A
C1515      H2274   1.083       .  S
C1516      C1517   1.380       .  A
C1516      H1519   1.083       .  S
C1517      C2265   1.443       .  S
H1518      C2271   1.083       .  S
N1520      C1524   1.353       .  A
N1520      C1521   1.357       .  A
N1520      C2267   1.417       .  S
C1522      H1525   1.083       .  S
C1523      C1524   1.381       .  A
C1524      C2261   1.441       .  S
N1527      C1531   1.356       .  A
N1527      C1528   1.359       .  A
N1527      C2258   1.418       .  S
C1528      C1529   1.381       .  A
C1528      C2255   1.450       .  S
C1529      C1530   1.371       .  A
C1529      H1532   1.083       .  S
C1530      C1531   1.380       .  A
C1530      H1533   1.083       .  S
C1531      C2254   1.443       .  S
N1534      C1538   1.354       .  A
N1534      C1535   1.357       .  A
N1534      C2257   1.418       .  S
C1535      C1536   1.381       .  A
C1535      C2250   1.446       .  S
C1536      C1537   1.372       .  A
C1536      H1539   1.083       .  S
C1537      C1538   1.380       .  A
C1537      H1540   1.083       .  S
C1538      C2251   1.442       .  S
N1541      C1545   1.355       .  A
N1541      C1542   1.359       .  A
N1541      C2247   1.417       .  S
C1542      C1543   1.382       .  A
C1542      C2243   1.451       .  S
C1543      C1544   1.372       .  A
C1543      H1546   1.083       .  S
C1544      C1545   1.379       .  A
C1544      H1547   1.083       .  S
C1545      C2246   1.443       .  S
N1548      C1552   1.355       .  A
N1548      C1549   1.358       .  A
C1549      C1550   1.381       .  A
C1549      C2242   1.447       .  S
C1550      C1551   1.372       .  A
C1550      H1553   1.083       .  S
C1551      C1552   1.380       .  A
C1551      H1554   1.083       .  S
C1552      C2239   1.444       .  S
N1555      C1559   1.357       .  A
N1555      C1556   1.359       .  A
N1555      C2237   1.419       .  S
C1556      C1557   1.381       .  A
C1556      C2235   1.448       .  S
C1557      C1558   1.371       .  A
C1557      H1560   1.083       .  S
C1558      C1559   1.380       .  A
C1558      H1561   1.083       .  S
C1559      C2233   1.447   1_554  S
N1562      C1566   1.356       .  A
N1562      C1563   1.360       .  A
N1562      C2238   1.419       .  S
C1563      C1564   1.381       .  A
C1563      C2229   1.450       .  S
C1564      C1565   1.371       .  A
C1564      H1567   1.083       .  S
C1565      C1566   1.380       .  A
C1565      H1568   1.083       .  S
C1566      C2231   1.445       .  S
N1569      C1573   1.357       .  A
N1569      C2227   1.417       .  S
C1570      C1571   1.381       .  A
C1570      C2225   1.453       .  S
C1571      C1572   1.372       .  A
C1571      H1574   1.083       .  S
C1572      H1575   1.083       .  S
C1573      C2223   1.448       .  S
N1576      C1580   1.355       .  A
N1576      C1577   1.358       .  A
N1576      C2228   1.417       .  S
C1577      C1578   1.381       .  A
C1577      C2219   1.448       .  S
C1578      C1579   1.372       .  A
C1578      H1581   1.083       .  S
C1579      C1580   1.380       .  A
C1579      H1582   1.083       .  S
C1580      C2222   1.444       .  S
N1583      C1587   1.357       .  A
N1583      C1584   1.360       .  A
N1583      C2218   1.418       .  S
C1584      C1585   1.381       .  A
C1584      C2215   1.452       .  S
C1585      C1586   1.372       .  A
C1585      H1588   1.083       .  S
C1586      C1587   1.379       .  A
C1586      H1589   1.083       .  S
C1587      C2214   1.447       .  S
N1590      C1594   1.355       .  A
N1590      C1591   1.359       .  A
N1590      C2217   1.417       .  S
C1591      C1592   1.382       .  A
C1591      C2968   1.451   1_545  S
C1592      C1593   1.373       .  A
C1592      H2351   1.083       .  S
C1593      C1594   1.380       .  A
C1593      H1596   1.083       .  S
C1594      C2210   1.444       .  S
H1595      C2348   1.083       .  S
N1597      C1601   1.356       .  A
N1597      C1598   1.360       .  A
N1597      C2207   1.418       .  S
C1598      C1599   1.382       .  A
C1599      C1600   1.372       .  A
C1599      H1602   1.083       .  S
C1600      C1601   1.379       .  A
C1600      H1603   1.083       .  S
C1601      C2206   1.446       .  S
N1604      C1608   1.355       .  A
N1604      C1605   1.358       .  A
N1604      C2208   1.417       .  S
C1605      C1606   1.382       .  A
C1605      C2199   1.449       .  S
C1606      C1607   1.373       .  A
C1606      H2365   1.083       .  S
C1607      C1608   1.380       .  A
C1607      H1610   1.083       .  S
C1608      C2201   1.445       .  S
H1609      C2362   1.083   1_545  S
N1611      C1615   1.355       .  A
N1611      C1612   1.358       .  A
N1611      C2197   1.418       .  S
C1612      C1613   1.381       .  A
C1612      C2194   1.447       .  S
C1613      C1614   1.372       .  A
C1613      H1616   1.083       .  S
C1614      C1615   1.380       .  A
C1614      H1617   1.083       .  S
C1615      C2195   1.445       .  S
N1618      C1622   1.355       .  A
N1618      C1619   1.360       .  A
N1618      C2198   1.418       .  S
C1619      C1620   1.382       .  A
C1619      C2191   1.451       .  S
C1620      C1621   1.372       .  A
C1620      H1623   1.083       .  S
C1621      C1622   1.379       .  A
C1621      H1624   1.083       .  S
C1622      C2189   1.445       .  S
N1625      C1629   1.355       .  A
N1625      C1626   1.359       .  A
N1625      C2187   1.418       .  S
C1626      C1627   1.382       .  A
C1626      C2184   1.450       .  S
C1627      C1628   1.372       .  A
C1627      H1630   1.083       .  S
C1628      C1629   1.380       .  A
C1628      H1631   1.083       .  S
C1629      C2186   1.444       .  S
N1632      C1636   1.354       .  A
N1632      C1633   1.359       .  A
N1632      C2188   1.418       .  S
C1633      C1634   1.382       .  A
C1633      C2182   1.449       .  S
C1634      C1635   1.372       .  A
C1634      H1637   1.083       .  S
C1635      C1636   1.380       .  A
C1635      H1638   1.083       .  S
C1636      C2180   1.442       .  S
N1639      C1643   1.355       .  A
N1639      C2396   1.358       .  A
N1639      C2934   1.418   1_545  S
C1640      N2395   1.358       .  A
C1640      C2397   1.382       .  A
C1640      C2176   1.449       .  S
C1641      C2396   1.382       .  A
C1641      C1642   1.373       .  A
C1641      H1644   1.083       .  S
C1642      C1643   1.381       .  A
C1642      H1645   1.083       .  S
C1643      C2173   1.445   1_554  S
N1646      C1650   1.357       .  A
N1646      C1647   1.360       .  A
N1646      C2177   1.418       .  S
C1647      C1648   1.381       .  A
C1647      C2169   1.454       .  S
C1648      C1649   1.372       .  A
C1648      H1651   1.083       .  S
C1649      C1650   1.380       .  A
C1649      H1652   1.083       .  S
C1650      C2172   1.448       .  S
N1653      C1657   1.356       .  A
N1653      C1654   1.359       .  A
N1653      C2167   1.419       .  S
C1654      C1655   1.382       .  A
C1654      C2165   1.449       .  S
C1655      C1656   1.371       .  A
C1655      H1658   1.083       .  S
C1656      C1657   1.379       .  A
C1656      H1659   1.083       .  S
C1657      C2163   1.443       .  S
N1660      C1664   1.355       .  A
N1660      C1661   1.359       .  A
N1660      C2168   1.419       .  S
C1661      C1662   1.382       .  A
C1662      C1663   1.371       .  A
C1663      C1664   1.380       .  A
C1663      H1666   1.083       .  S
C1664      C2162   1.443       .  S
N1667      C1671   1.358       .  A
N1667      C1668   1.356       .  A
N1667      C2157   1.418       .  S
C1668      C1669   1.380       .  A
C1668      C2153   1.447       .  S
C1669      C1670   1.372       .  A
C1669      H1672   1.083       .  S
C1670      C1671   1.381       .  A
C1670      H1673   1.083       .  S
C1671      C2155   1.447       .  S
N1674      C1678   1.356       .  A
N1674      C1675   1.359       .  A
N1674      C2914   1.418       .  S
C1675      C1676   1.381       .  A
C1675      C2152   1.451       .  S
C1676      C1677   1.372       .  A
C1676      H1679   1.083       .  S
C1677      C1678   1.380       .  A
C1677      H1680   1.083       .  S
C1678      C2149   1.446       .  S
N1681      C1685   1.355       .  A
N1681      C1682   1.358       .  A
N1681      C2147   1.418       .  S
C1682      C1683   1.382       .  A
C1682      C2143   1.449       .  S
C1683      C1684   1.372       .  A
C1683      H1686   1.083       .  S
C1684      C1685   1.380       .  A
C1684      H1687   1.083       .  S
C1685      C2145   1.446       .  S
N1688      C1692   1.355       .  A
N1688      C1689   1.359       .  A
N1688      C2148   1.417       .  S
C1689      C1690   1.381       .  A
C1689      C2896   1.450       .  S
C1690      C1691   1.372       .  A
C1690      H2449   1.083       .  S
C1691      C1692   1.380       .  A
C1691      H1694   1.083       .  S
C1692      C2141   1.443       .  S
H1693      C2446   1.083   1_545  S
N1695      C1699   1.356       .  A
N1695      C1696   1.360       .  A
N1695      C2138   1.418       .  S
C1696      C1697   1.382       .  A
C1696      C2133   1.452       .  S
C1697      C1698   1.372       .  A
C1697      H1700   1.083       .  S
C1698      C1699   1.379       .  A
C1698      H1701   1.083       .  S
C1699      C2135   1.446       .  S
N1702      C1706   1.354       .  A
N1702      C1703   1.359       .  A
N1702      C2893   1.417       .  S
C1703      C1704   1.382       .  A
C1703      C2130   1.449       .  S
C1704      C1705   1.372       .  A
C1704      H1707   1.083       .  S
C1705      C1706   1.380       .  A
C1705      H1708   1.083       .  S
C1706      C2131   1.443       .  S
N1709      C1713   1.357       .  A
N1709      C1710   1.360       .  A
N1709      C2883   1.417   1_545  S
C1710      C1711   1.381       .  A
C1710      C2126   1.455   1_545  S
C1711      C1712   1.373       .  A
C1711      H1714   1.083       .  S
C1712      C1713   1.380       .  A
C1712      H1715   1.083       .  S
C1713      C2123   1.449       .  S
N1716      C1720   1.354       .  A
N1716      C1717   1.357       .  A
N1716      C2128   1.417       .  S
C1717      C1718   1.382       .  A
C1717      C2121   1.447       .  S
C1718      C1719   1.372       .  A
C1718      H1721   1.083       .  S
C1719      C1720   1.380       .  A
C1719      H1722   1.083       .  S
C1720      C2120   1.445       .  S
N1723      C1727   1.354       .  A
N1723      C1724   1.358       .  A
N1723      C2118   1.418       .  S
C1724      C1725   1.382       .  A
C1724      C2115   1.448       .  S
C1725      C1726   1.372       .  A
C1725      H1728   1.083       .  S
C1726      C1727   1.380       .  A
C1726      H1729   1.083       .  S
C1727      C2114   1.442       .  S
N1730      C1734   1.355       .  A
N1730      C1731   1.359       .  A
N1730      C2117   1.419       .  S
C1732      H1735   1.083       .  S
C1733      C1734   1.379       .  A
C1734      C2111   1.442       .  S
N1737      C1741   1.355       .  A
N1737      C1738   1.358       .  A
N1737      C2107   1.418       .  S
C1738      C1739   1.381       .  A
C1738      C2104   1.448       .  S
C1739      C1740   1.371       .  A
C1739      H1742   1.083       .  S
C1740      C1741   1.380       .  A
C1740      H1743   1.083       .  S
C1741      C2106   1.442   1_554  S
N1744      C1748   1.356       .  A
N1744      C1745   1.360       .  A
C1745      C1746   1.381       .  A
C1745      C2101   1.450       .  S
C1746      C1747   1.371       .  A
C1746      H1749   1.083       .  S
C1747      C1748   1.380       .  A
C1747      H1750   1.083       .  S
C1748      C2100   1.445       .  S
N1751      C1755   1.356       .  A
N1751      C1752   1.360       .  A
N1751      C2097   1.417       .  S
C1752      C1753   1.381       .  A
C1752      C2095   1.451       .  S
C1753      C1754   1.371       .  A
C1753      H1756   1.083       .  S
C1754      C1755   1.379       .  A
C1754      H1757   1.083       .  S
C1755      C2094   1.445       .  S
N1758      C2098   1.417       .  S
C1759      C1760   1.381       .  A
C1759      C2091   1.449       .  S
C1760      C1761   1.372       .  A
C1760      H1763   1.083       .  S
C1761      C1762   1.380   1_655  A
C1761      H1764   1.083       .  S
C1762      C2089   1.447       .  S
O1765      C1776   1.288       .  A
O1765     Eu1801   2.455       .  S
O1766      C1777   1.294       .  A
O1766     Eu1800   2.482       .  S
O1767      C1778   1.294       .  A
O1767     Eu1773   2.482       .  S
O1768      C1779   1.289       .  A
O1768     Eu1773   2.459       .  S
O1769      C1779   1.294       .  A
O1769     Eu1803   2.483       .  S
O1770      C1778   1.292       .  A
O1770     Eu1802   2.475       .  S
O1771      C1777   1.291       .  A
O1771     Eu1773   2.468       .  S
O1772      C1776   1.294       .  A
O1772     Eu1773   2.481       .  S
Eu1773     O1783   2.360       .  S
Eu1773     O1775   2.357       .  S
Eu1773     O1774   2.371       .  S
Eu1773     O1781   2.362       .  S
O1774     Eu1803   2.358       .  S
O1774     Eu1800   2.359       .  S
O1775     Eu1801   2.370       .  S
O1775     Eu1802   2.357       .  S
C1776      C2266   1.441       .  S
C1777      C2200   1.449   1_545  S
C1778      C3012   1.450   1_545  S
C1779      C2136   1.444       .  S
H1780      O1781   0.964       .  S
O1781     Eu1802   2.369       .  S
O1781     Eu1800   2.361       .  S
H1782      O1783   0.965       .  S
O1783     Eu1801   2.355       .  S
O1783     Eu1803   2.357       .  S
O1784      C1807   1.291       .  A
O1784     Eu1800   2.468       .  S
O1785      C1808   1.293       .  A
O1785     Eu1801   2.478       .  S
O1786      C1809   1.290       .  A
O1786     Eu1802   2.467       .  S
O1787      C1810   1.293       .  A
O1787     Eu1803   2.477       .  S
O1788      C1811   1.289       .  A
O1788     Eu1803   2.461       .  S
O1789      C1812   1.294       .  A
O1789     Eu1802   2.482       .  S
O1790      C1813   1.289       .  A
O1790     Eu1804   2.458       .  S
O1791      C1814   1.293       .  A
O1791     Eu1804   2.473       .  S
O1792      C1813   1.294       .  A
O1792     Eu1802   2.481       .  S
O1793      C1814   1.290       .  A
O1793     Eu1803   2.466       .  S
O1794      C1809   1.293       .  A
O1794     Eu1800   2.477       .  S
O1795      C1812   1.290       .  A
O1795     Eu1801   2.466       .  S
O1796      C1811   1.294       .  A
O1796     Eu1801   2.487       .  S
O1797      C1810   1.292       .  A
O1797     Eu1800   2.476       .  S
O1798      C1807   1.294       .  A
O1798     Eu1804   2.480       .  S
O1799      C1808   1.293       .  A
O1799     Eu1804   2.481       .  S
Eu1800     O1818   2.366       .  S
Eu1800     O1806   2.354       .  S
Eu1801     O1805   2.356       .  S
Eu1801     O1816   2.361       .  S
Eu1802     O1816   2.359       .  S
Eu1802     O1806   2.351       .  S
Eu1803     O1805   2.371       .  S
Eu1803     O1818   2.360       .  S
Eu1804     O1805   2.357       .  S
Eu1804     O1816   2.365       .  S
Eu1804     O1818   2.361       .  S
Eu1804     O1806   2.352       .  S
C1807      C2234   1.446       .  S
C1808      C2203   1.452       .  S
C1809      C2174   1.443       .  S
C1810      C2096   1.450       .  S
C1811      C2190   1.444       .  S
C1812      C2092   1.448       .  S
C1813      C2105   1.441       .  S
C1814      C2249   1.445       .  S
H1815      O1816   0.964       .  S
H1817      O1818   0.964       .  S
O1819      C1830   1.288       .  A
O1819     Eu1855   2.456   1_556  S
O1820      C1831   1.294       .  A
O1820     Eu1854   2.482       .  S
O1821     Eu1827   2.466   1_556  S
O1822      C1833   1.294       .  A
O1822     Eu1827   2.482       .  S
O1823      C1833   1.290       .  A
O1823     Eu1857   2.465       .  S
O1824      C1832   1.294       .  A
O1824     Eu1856   2.479   1_556  S
O1825     Eu1827   2.476       .  S
O1826      C1830   1.294       .  A
O1826     Eu1827   2.481   1_556  S
Eu1827     O1837   2.359       .  S
Eu1827     O1829   2.350   1_554  S
Eu1827     O1828   2.356       .  S
O1828     Eu1857   2.370       .  S
O1829     Eu1855   2.351   1_556  S
C1830      C2252   1.440       .  S
C1831      C2102   1.450       .  S
C1832      C2202   1.443       .  S
C1833      C2236   1.447       .  S
H1834      O1835   0.964       .  S
O1835     Eu1856   2.362       .  S
O1835     Eu1854   2.363       .  S
H1836      O1837   0.964       .  S
O1837     Eu1855   2.367       .  S
O1837     Eu1857   2.360       .  S
O1838      C2617   1.290       .  A
O1838     Eu1854   2.463       .  S
O1839      C1862   1.293       .  A
O1839     Eu2611   2.471   1_545  S
O1840      C1863   1.294       .  A
O1840     Eu1856   2.484       .  S
O1841      C1864   1.288       .  A
O1841     Eu1857   2.454       .  S
O1842      C1865   1.294       .  A
O1842     Eu1857   2.482       .  S
O1843     Eu2612   2.467   1_546  S
O1844      C1867   1.292       .  A
O1845      C1868   1.289       .  A
O1845     Eu2614   2.460   1_655  S
O1846      C1867   1.292       .  A
O1846     Eu2612   2.477   1_545  S
O1847      C1868   1.295       .  A
O1847     Eu1857   2.487       .  S
O1848      C1863   1.290       .  A
O1848     Eu1854   2.467       .  S
O1849      C1866   1.294   1_655  A
O1849     Eu2611   2.480   1_546  S
O1850      C1865   1.292       .  A
O1850     Eu1855   2.479       .  S
O1851      C1864   1.294       .  A
O1852      C1861   1.295       .  A
O1853      C1862   1.291       .  A
O1853     Eu1858   2.470   1_655  S
Eu1854     O1860   2.371       .  S
Eu1855     O2595   2.472       .  S
Eu1855     O2605   2.480   1_554  S
Eu1855     O1859   2.356       .  S
Eu1855     O2626   2.361   1_655  S
Eu1856     O2599   2.466   1_554  S
Eu1856     O2602   2.477       .  S
Eu1856     O1860   2.359       .  S
Eu1857     O1859   2.355       .  S
Eu1857     O1872   2.357       .  S
Eu1858     O2601   2.460   1_455  S
Eu1858     O2615   2.369   1_445  S
Eu1858     O1870   2.361       .  S
Eu1858     O2628   2.356   1_445  S
O1859     Eu2614   2.369   1_655  S
C1861      C2213   1.446       .  S
C1861      O2594   1.290   1_545  A
C1862      C2103   1.447       .  S
C1863      C2175   1.448       .  S
C1864      C2112   1.440       .  S
C1865      C2170   1.453       .  S
C1866      C2090   1.445       .  S
C1867      C2230   1.449       .  S
C1868      C2150   1.444       .  S
H1869      O1870   0.964       .  S
O1870     Eu2611   2.361   1_445  S
H1871      O1872   0.965       .  S
O1872     Eu2614   2.356   1_655  S
O1873      C1884   1.288       .  A
O1873     Eu1909   2.451       .  S
O1874      C1885   1.295       .  A
O1874     Eu1908   2.486       .  S
O1875      C1886   1.294       .  A
O1875     Eu1881   2.479       .  S
O1876      C1887   1.289       .  A
O1876     Eu1881   2.459       .  S
O1877      C1887   1.294       .  A
O1877     Eu1911   2.479       .  S
O1878      C1886   1.293       .  A
O1878     Eu1910   2.481       .  S
O1879      C1885   1.290       .  A
O1879     Eu1881   2.465       .  S
O1880      C1884   1.295       .  A
O1880     Eu1881   2.489       .  S
Eu1881     O1891   2.356       .  S
Eu1881     O1883   2.356       .  S
Eu1881     O1882   2.371       .  S
Eu1881     O1889   2.363       .  S
O1882     Eu1911   2.358       .  S
O1882     Eu1908   2.357       .  S
O1883     Eu1909   2.372       .  S
O1883     Eu1910   2.355       .  S
C1884      C2245   1.441       .  S
C1885      C2144   1.448       .  S
C1886      C2226   1.453       .  S
C1887      C2185   1.442       .  S
H1888      O1889   0.964       .  S
O1889     Eu1910   2.367       .  S
O1889     Eu1908   2.362       .  S
H1890      O1891   0.965       .  S
O1891     Eu1909   2.359       .  S
O1891     Eu1911   2.357       .  S
O1892      C1915   1.291       .  A
O1892     Eu1908   2.468       .  S
O1893      C1916   1.293       .  A
O1893     Eu1909   2.476       .  S
O1894      C1917   1.289       .  A
O1894     Eu1910   2.461       .  S
O1895      C1918   1.294       .  A
O1895     Eu1911   2.481       .  S
O1896      C1919   1.290       .  A
O1896     Eu1911   2.464       .  S
O1897      C1920   1.294       .  A
O1897     Eu1910   2.479       .  S
O1898      C1921   1.291       .  A
O1898     Eu1912   2.469       .  S
O1899      C1922   1.294       .  A
O1899     Eu1912   2.482       .  S
O1900      C1921   1.293       .  A
O1900     Eu1910   2.477       .  S
O1901      C1922   1.290       .  A
O1901     Eu1911   2.465       .  S
O1902      C1917   1.293       .  A
O1902     Eu1908   2.476       .  S
O1903      C1920   1.290       .  A
O1903     Eu1909   2.467       .  S
O1904      C1919   1.294       .  A
O1904     Eu1909   2.485       .  S
O1905      C1918   1.292       .  A
O1905     Eu1908   2.476       .  S
O1906      C1915   1.293       .  A
O1906     Eu1912   2.475       .  S
O1907      C1916   1.291       .  A
O1907     Eu1912   2.473       .  S
Eu1908     O1926   2.367       .  S
Eu1908     O1914   2.352       .  S
Eu1909     O1913   2.356       .  S
Eu1909     O1924   2.359       .  S
Eu1910     O1924   2.361       .  S
Eu1910     O1914   2.353       .  S
Eu1911     O1913   2.370       .  S
Eu1911     O1926   2.361       .  S
Eu1912     O1913   2.358       .  S
Eu1912     O1924   2.366       .  S
Eu1912     O1926   2.360       .  S
Eu1912     O1914   2.352       .  S
C1915      C2209   1.442       .  S
C1916      C2139   1.449   1_545  S
C1917      C2113   1.441       .  S
C1918      C2166   1.450       .  S
C1919      C2124   1.447       .  S
C1920      C2160   1.448       .  S
C1921      C2154   1.445       .  S
C1922      C2976   1.447   1_545  S
H1923      O1924   0.964       .  S
H1925      O1926   0.964       .  S
O1927      C1938   1.294       .  A
O1927     Eu1963   2.481       .  S
O1928      C1939   1.289       .  A
O1928     Eu1962   2.458       .  S
O1929      C1940   1.294       .  A
O1929     Eu1935   2.479       .  S
O1930      C1941   1.290       .  A
O1930     Eu1935   2.467       .  S
O1931      C1941   1.294       .  A
O1931     Eu1965   2.478       .  S
O1932      C1940   1.290       .  A
O1932     Eu1964   2.465       .  S
O1933      C1939   1.294       .  A
O1933     Eu1935   2.480       .  S
O1934      C1938   1.291       .  A
O1934     Eu1935   2.474       .  S
Eu1935     O1945   2.367       .  S
Eu1935     O1937   2.358       .  S
Eu1935     O1936   2.351       .  S
Eu1935     O1943   2.360       .  S
O1936     Eu1965   2.355       .  S
O1936     Eu1962   2.355       .  S
O1937     Eu1963   2.357       .  S
O1937     Eu1964   2.370       .  S
C1938      C2263   1.450       .  S
C1939      C2179   1.441       .  S
C1940      C2193   1.446       .  S
C1941      C2119   1.443       .  S
H1942      O1943   0.964       .  S
O1943     Eu1964   2.361       .  S
O1943     Eu1962   2.365       .  S
H1944      O1945   0.964       .  S
O1945     Eu1963   2.360       .  S
O1945     Eu1965   2.359       .  S
O1946      C1969   1.294       .  A
O1946     Eu1962   2.479       .  S
O1947      C1970   1.289       .  A
O1947     Eu1963   2.455       .  S
O1948      C1971   1.294       .  A
O1948     Eu1964   2.481       .  S
O1949      C1972   1.290       .  A
O1949     Eu1965   2.464       .  S
O1950      C1973   1.294       .  A
O1950     Eu1965   2.483       .  S
O1951      C1974   1.289       .  A
O1951     Eu1964   2.459       .  S
O1952      C1975   1.289       .  A
O1952     Eu1966   2.457       .  S
O1953      C1976   1.293       .  A
O1953     Eu1966   2.476       .  S
O1954      C1975   1.295       .  A
O1954     Eu1964   2.490       .  S
O1955      C1976   1.292       .  A
O1955     Eu1965   2.477       .  S
O1956      C1971   1.292       .  A
O1956     Eu1962   2.481       .  S
O1957      C1974   1.294       .  A
O1957     Eu1963   2.480       .  S
O1958      C1973   1.290       .  A
O1958     Eu1963   2.468       .  S
O1959      C1972   1.293       .  A
O1959     Eu1962   2.476       .  S
O1960      C1969   1.290       .  A
O1960     Eu1966   2.465       .  S
O1961      C1970   1.295       .  A
O1961     Eu1966   2.487       .  S
Eu1962     O1980   2.361       .  S
Eu1962     O1968   2.356       .  S
Eu1963     O1967   2.371       .  S
Eu1963     O1978   2.359       .  S
Eu1964     O1978   2.355       .  S
Eu1964     O1968   2.356       .  S
Eu1965     O1967   2.359       .  S
Eu1965     O1980   2.367       .  S
Eu1966     O1967   2.358       .  S
Eu1966     O1978   2.357       .  S
Eu1966     O1980   2.361       .  S
Eu1966     O1968   2.373       .  S
C1969      C2259   1.446       .  S
C1970      C2205   1.444       .  S
C1971      C2134   1.452       .  S
C1972      C2240   1.443       .  S
C1973      C2129   1.449       .  S
C1974      C2253   1.442       .  S
C1975      C2093   1.443       .  S
C1976      C2192   1.451       .  S
H1977      O1978   0.965       .  S
H1979      O1980   0.964       .  S
O1981      C1992   1.289       .  A
O1981     Eu2017   2.455       .  S
O1982      C1993   1.294       .  A
O1982     Eu2016   2.478       .  S
O1983      C1994   1.294       .  A
O1983     Eu1989   2.480       .  S
O1984      C1995   1.290       .  A
O1984     Eu1989   2.463       .  S
O1985      C1995   1.294       .  A
O1985     Eu2019   2.481       .  S
O1986      C1994   1.293       .  A
O1986     Eu2018   2.481       .  S
O1987      C1993   1.290       .  A
O1987     Eu1989   2.464       .  S
O1988      C1992   1.295       .  A
O1988     Eu1989   2.489       .  S
Eu1989     O1999   2.354       .  S
Eu1989     O1991   2.357       .  S
Eu1989     O1990   2.368       .  S
Eu1989     O1997   2.362       .  S
O1990     Eu2019   2.358       .  S
O1990     Eu2016   2.357       .  S
O1991     Eu2017   2.373       .  S
O1991     Eu2018   2.356       .  S
C1992      C2232   1.443       .  S
C1993      C2156   1.445       .  S
C1994      C2216   1.452       .  S
C1995      C2099   1.444       .  S
H1996      O1997   0.964       .  S
O1997     Eu2018   2.365       .  S
O1997     Eu2016   2.361       .  S
H1998      O1999   0.965       .  S
O1999     Eu2017   2.358       .  S
O1999     Eu2019   2.357       .  S
O2000      C2023   1.290       .  A
O2000     Eu2016   2.465       .  S
O2001      C2024   1.293       .  A
O2001     Eu2017   2.476       .  S
O2002      C2025   1.289       .  A
O2002     Eu2018   2.461       .  S
O2003      C2026   1.294       .  A
O2003     Eu2019   2.478       .  S
O2004      C2027   1.289       .  A
O2004     Eu2019   2.459       .  S
O2005      C2028   1.294       .  A
O2005     Eu2018   2.479       .  S
O2006      C2029   1.291       .  A
O2006     Eu2020   2.470       .  S
O2007      C2030   1.295       .  A
O2007     Eu2020   2.488       .  S
O2008      C2029   1.293       .  A
O2008     Eu2018   2.477       .  S
O2009      C2030   1.291       .  A
O2009     Eu2019   2.469       .  S
O2010      C2025   1.294       .  A
O2010     Eu2016   2.480       .  S
O2011      C2028   1.290       .  A
O2011     Eu2017   2.465       .  S
O2012      C2027   1.295       .  A
O2012     Eu2017   2.489       .  S
O2013      C2026   1.291       .  A
O2013     Eu2016   2.475       .  S
O2014      C2023   1.293       .  A
O2014     Eu2020   2.477       .  S
O2015      C2024   1.292       .  A
O2015     Eu2020   2.474       .  S
Eu2016     O2034   2.367       .  S
Eu2016     O2022   2.350       .  S
Eu2017     O2021   2.358       .  S
Eu2017     O2032   2.361       .  S
Eu2018     O2032   2.361       .  S
Eu2018     O2022   2.355       .  S
Eu2019     O2021   2.372       .  S
Eu2019     O2034   2.363       .  S
Eu2020     O2021   2.361       .  S
Eu2020     O2032   2.367       .  S
Eu2020     O2034   2.360       .  S
Eu2020     O2022   2.354       .  S
C2023      C2221   1.442       .  S
C2024      C2151   1.449       .  S
C2025      C2161   1.442       .  S
C2026      C2110   1.449       .  S
C2027      C2171   1.446       .  S
C2028      C2116   1.447       .  S
C2029      C2146   1.445       .  S
C2030      C2211   1.451       .  S
H2031      O2032   0.964       .  S
H2033      O2034   0.964       .  S
O2035      C2802   1.289       .  A
O2035     Eu2071   2.457       .  S
O2036      C2047   1.294       .  A
O2036     Eu2826   2.482   1_545  S
O2037      C2804   1.290       .  A
O2037     Eu2043   2.462       .  S
O2038      C2049   1.294       .  A
O2038     Eu2043   2.483       .  S
O2039     Eu2073   2.462   1_545  S
O2040      C2048   1.293       .  A
O2041      C2047   1.292       .  A
O2041     Eu2043   2.478       .  S
O2042      C2046   1.294       .  A
Eu2043     O2044   2.355       .  S
Eu2043     O2807   2.368   1_545  S
O2044     Eu2826   2.358   1_545  S
O2045     Eu2071   2.352       .  S
O2045     Eu2072   2.353   1_655  S
C2046      C2262   1.439       .  S
C2046      O2791   1.289   1_545  A
C2047      C2183   1.450       .  S
C2048      C2132   1.441       .  S
C2048      O2793   1.290       .  A
C2049      C2241   1.446       .  S
H2050      O2051   0.964       .  S
O2051     Eu2799   2.368       .  S
O2051     Eu2070   2.360       .  S
H2052      O2053   0.964   1_545  S
O2053     Eu2827   2.366       .  S
O2053     Eu2073   2.361       .  S
O2054     Eu2070   2.464       .  S
O2055      C2078   1.293       .  A
O2055     Eu2071   2.476       .  S
O2056      C2079   1.294       .  A
O2057      C2080   1.289       .  A
O2058      C2081   1.295       .  A
O2058     Eu2073   2.486       .  S
O2059      C2082   1.290       .  A
O2059     Eu2072   2.464   1_655  S
O2060      C2083   1.292       .  A
O2060     Eu2074   2.472       .  S
O2061      C2084   1.288       .  A
O2061     Eu2074   2.449       .  S
O2062      C2083   1.292       .  A
O2062     Eu2072   2.478   1_655  S
O2063      C2084   1.295       .  A
O2063     Eu2829   2.486       .  S
O2064      C2079   1.290       .  A
O2064     Eu2070   2.464       .  S
O2065      C2082   1.293       .  A
O2065     Eu2071   2.477       .  S
O2066      C2837   1.293       .  A
O2066     Eu2071   2.481       .  S
O2067      C2080   1.294       .  A
O2067     Eu2826   2.478   1_545  S
O2068      C2077   1.294   1_655  A
O2068     Eu2074   2.483       .  S
O2069      C2078   1.291       .  A
O2069     Eu2074   2.470       .  S
Eu2070     O2792   2.482       .  S
Eu2070     O2823   2.478       .  S
Eu2070     O2800   2.358       .  S
Eu2071     O2809   2.366       .  S
Eu2071     O2075   2.355       .  S
Eu2071     O2086   2.361       .  S
Eu2072     O2086   2.365   1_455  S
Eu2072     O2076   2.356       .  S
Eu2073     O2819   2.486       .  S
Eu2073     O2831   2.355       .  S
Eu2073     O2844   2.358       .  S
Eu2074     O2075   2.372       .  S
Eu2074     O2086   2.358       .  S
Eu2074     O2088   2.358       .  S
Eu2074     O2076   2.357   1_655  S
O2075     Eu2829   2.355       .  S
C2077      C2224   1.446       .  S
C2078      C2181   1.449       .  S
C2079      C2122   1.446       .  S
C2080      C2164   1.441       .  S
C2081      C2125   1.455       .  S
C2081      O2822   1.293       .  A
C2082      C2196   1.443       .  S
C2083      C2244   1.450       .  S
C2084      C2142   1.441       .  S
H2085      O2086   0.964       .  S
H2087      O2088   0.965       .  S
O2088     Eu2829   2.358       .  S
C2089      C2090   1.211       .  T
C2091      C2092   1.213       .  T
C2093      C2094   1.210       .  T
C2095      C2096   1.214       .  T
C2097      C2098   1.218       .  T
C2099      C2100   1.210       .  T
C2101      C2102   1.214       .  T
C2103      C2104   1.212       .  T
C2105      C2106   1.209       .  T
C2107      C2108   1.220       .  T
C2109      C2110   1.213       .  T
C2111      C2112   1.209       .  T
C2113      C2114   1.209       .  T
C2115      C2116   1.212       .  T
C2117      C2118   1.220       .  T
C2119      C2120   1.210       .  T
C2121      C2122   1.212       .  T
C2123      C2124   1.213       .  T
C2125      C2126   1.217       .  T
C2127      N2465   1.417       .  S
C2127      C2128   1.218       .  T
C2129      C2130   1.214       .  T
C2131      C2132   1.209       .  T
C2133      C2134   1.216       .  T
C2135      C2136   1.211       .  T
C2137      N2458   1.417   1_545  S
C2137      C2138   1.219       .  T
C2139      C2140   1.214       .  T
C2140      C2445   1.450       .  S
C2141      C2142   1.209       .  T
C2143      C2144   1.213       .  T
C2145      C2146   1.211       .  T
C2147      C2148   1.219       .  T
C2149      C2150   1.211       .  T
C2151      C2152   1.214       .  T
C2153      C2154   1.211       .  T
C2157      C2158   1.220       .  T
C2158      N2430   1.418       .  S
C2159      C2160   1.213       .  T
C2161      C2162   1.209       .  T
C2163      C2164   1.209       .  T
C2165      C2166   1.214       .  T
C2167      C2168   1.220       .  T
C2169      C2170   1.216       .  T
C2171      C2172   1.212       .  T
C2173      C2174   1.210       .  T
C2175      C2176   1.213       .  T
C2177      C2178   1.219       .  T
C2178      N2395   1.418       .  S
C2179      C2180   1.208       .  T
C2181      C2182   1.214       .  T
C2183      C2184   1.214       .  T
C2185      C2186   1.210       .  T
C2187      C2188   1.219       .  T
C2189      C2190   1.211       .  T
C2193      C2194   1.212       .  T
C2195      C2196   1.210       .  T
C2197      C2198   1.219       .  T
C2199      C2956   1.213       .  T
C2200      C2955   1.213       .  T
C2201      C2202   1.210       .  T
C2203      C2204   1.216       .  T
C2205      C2206   1.211       .  T
C2207      C2208   1.219       .  T
C2209      C2210   1.210       .  T
C2211      C2212   1.215       .  T
C2212      C2347   1.451       .  S
C2213      C2214   1.212       .  T
C2215      C2216   1.216       .  T
C2217      C2218   1.219       .  T
C2219      C2220   1.213       .  T
C2220      C2678   1.447       .  S
C2221      C2222   1.210       .  T
C2225      C2226   1.216       .  T
C2227      C2228   1.219       .  T
C2229      C2230   1.214       .  T
C2231      C2232   1.210       .  T
C2233      C2234   1.212       .  T
C2235      C2236   1.213       .  T
C2237      C2238   1.220       .  T
C2239      C2240   1.210       .  T
C2241      C2242   1.212       .  T
C2243      C2244   1.214       .  T
C2245      C2246   1.209       .  T
C2247      C2248   1.219       .  T
C2249      C2250   1.211       .  T
C2251      C2252   1.208       .  T
C2253      C2254   1.210       .  T
C2255      C2256   1.214       .  T
C2256      C2534   1.450       .  S
C2257      C2258   1.219       .  T
C2259      C2260   1.212       .  T
C2261      C2262   1.208       .  T
C2263      C2264   1.214       .  T
C2264      C2270   1.450       .  S
C2265      C2266   1.209       .  T
C2267      C2268   1.219       .  T
N2269      C2273   1.355       .  A
N2269      C2270   1.359       .  A
N2269      C3024   1.418       .  S
C2270      C2271   1.382       .  A
C2271      C2272   1.372       .  A
C2272      C2273   1.380       .  A
C2272      H2275   1.083       .  S
C2273      C3021   1.443       .  S
N2276      C2280   1.353       .  A
N2276      C2277   1.357       .  A
N2276      C3023   1.417       .  S
C2278      H2281   1.083       .  S
C2279      C2280   1.381       .  A
C2280      C3017   1.441       .  S
N2283      C2287   1.356       .  A
N2283      C2284   1.359       .  A
N2283      C3014   1.418       .  S
C2284      C2285   1.381       .  A
C2284      C3011   1.450       .  S
C2285      C2286   1.371       .  A
C2285      H2288   1.083       .  S
C2286      C2287   1.380       .  A
C2286      H2289   1.083       .  S
C2287      C3010   1.443       .  S
N2290      C2294   1.354       .  A
N2290      C2291   1.357       .  A
N2290      C3013   1.418       .  S
C2291      C2292   1.381       .  A
C2291      C3006   1.446       .  S
C2292      C2293   1.372       .  A
C2292      H2295   1.083       .  S
C2293      C2294   1.380       .  A
C2293      H2296   1.083       .  S
C2294      C3007   1.442       .  S
N2297      C2301   1.355       .  A
N2297      C2298   1.359       .  A
N2297      C3003   1.417       .  S
C2298      C2299   1.381       .  A
C2298      C2999   1.451       .  S
C2299      C2300   1.372       .  A
C2299      H2302   1.083       .  S
C2300      C2301   1.379       .  A
C2300      H2303   1.083       .  S
C2301      C3002   1.443       .  S
N2304      C2308   1.355       .  A
N2304      C2305   1.358       .  A
C2305      C2306   1.381       .  A
C2305      C2998   1.447       .  S
C2306      C2307   1.372       .  A
C2306      H2309   1.083       .  S
C2307      C2308   1.380       .  A
C2307      H2310   1.083       .  S
C2308      C2995   1.444       .  S
N2311      C2315   1.357       .  A
N2311      C2312   1.359       .  A
N2311      C2993   1.419       .  S
C2312      C2313   1.381       .  A
C2312      C2991   1.448       .  S
C2313      C2314   1.371       .  A
C2313      H2316   1.083       .  S
C2314      C2315   1.380       .  A
C2314      H2317   1.083       .  S
C2315      C2989   1.447   1_554  S
N2318      C2322   1.356       .  A
N2318      C2319   1.360       .  A
N2318      C2994   1.419       .  S
C2319      C2320   1.381       .  A
C2319      C2985   1.450       .  S
C2320      C2321   1.371       .  A
C2320      H2323   1.083       .  S
C2321      C2322   1.380       .  A
C2321      H2324   1.083       .  S
C2322      C2987   1.445       .  S
N2325      C2329   1.357       .  A
N2325      C2983   1.417       .  S
C2326      C2327   1.381       .  A
C2326      C2981   1.453       .  S
C2327      C2328   1.372       .  A
C2327      H2330   1.083       .  S
C2328      H2331   1.083       .  S
C2329      C2979   1.448       .  S
N2332      C2336   1.355       .  A
N2332      C2333   1.358       .  A
N2332      C2984   1.417       .  S
C2333      C2334   1.381       .  A
C2333      C2975   1.448       .  S
C2334      C2335   1.372       .  A
C2334      H2337   1.083       .  S
C2335      C2336   1.380       .  A
C2335      H2338   1.083       .  S
C2336      C2978   1.444       .  S
N2339      C2343   1.357       .  A
N2339      C2340   1.360       .  A
N2339      C2974   1.418       .  S
C2340      C2341   1.381       .  A
C2340      C2971   1.452       .  S
C2341      C2342   1.372       .  A
C2341      H2344   1.083       .  S
C2342      C2343   1.379       .  A
C2342      H2345   1.083       .  S
C2343      C2970   1.447       .  S
N2346      C2350   1.355       .  A
N2346      C2347   1.359       .  A
N2346      C2973   1.417       .  S
C2347      C2348   1.382       .  A
C2348      C2349   1.373       .  A
C2349      C2350   1.380       .  A
C2349      H2352   1.083       .  S
C2350      C2966   1.444       .  S
N2353      C2357   1.356       .  A
N2353      C2354   1.360       .  A
N2353      C2963   1.418       .  S
C2354      C2355   1.382       .  A
C2355      C2356   1.372       .  A
C2355      H2358   1.083       .  S
C2356      C2357   1.379       .  A
C2356      H2359   1.083       .  S
C2357      C2962   1.446       .  S
N2360      C2364   1.355       .  A
N2360      C2361   1.358       .  A
N2360      C2964   1.417       .  S
C2361      C2362   1.382       .  A
C2361      C2955   1.449       .  S
C2362      C2363   1.373       .  A
C2363      C2364   1.380       .  A
C2363      H2366   1.083       .  S
C2364      C2957   1.445       .  S
N2367      C2371   1.355       .  A
N2367      C2368   1.358       .  A
N2367      C2953   1.418       .  S
C2368      C2369   1.381       .  A
C2368      C2950   1.447       .  S
C2369      C2370   1.372       .  A
C2369      H2372   1.083       .  S
C2370      C2371   1.380       .  A
C2370      H2373   1.083       .  S
C2371      C2951   1.445       .  S
N2374      C2378   1.355       .  A
N2374      C2375   1.360       .  A
N2374      C2954   1.418       .  S
C2375      C2376   1.382       .  A
C2375      C2947   1.451       .  S
C2376      C2377   1.372       .  A
C2376      H2379   1.083       .  S
C2377      C2378   1.379       .  A
C2377      H2380   1.083       .  S
C2378      C2945   1.446       .  S
N2381      C2385   1.355       .  A
N2381      C2382   1.359       .  A
N2381      C2943   1.418       .  S
C2382      C2383   1.382       .  A
C2382      C2940   1.450       .  S
C2383      C2384   1.372       .  A
C2383      H2386   1.083       .  S
C2384      C2385   1.380       .  A
C2384      H2387   1.083       .  S
C2385      C2942   1.444       .  S
N2388      C2392   1.354       .  A
N2388      C2389   1.359       .  A
N2388      C2944   1.418       .  S
C2389      C2390   1.382       .  A
C2389      C2938   1.449       .  S
C2390      C2391   1.372       .  A
C2390      H2393   1.083       .  S
C2391      C2392   1.380       .  A
C2391      H2394   1.083       .  S
C2392      C2936   1.442       .  S
N2395      C2399   1.355       .  A
C2396      C2932   1.449   1_545  S
C2397      C2398   1.373       .  A
C2397      H2400   1.083       .  S
C2398      C2399   1.381       .  A
C2398      H2401   1.083       .  S
C2399      C2929   1.445   1_554  S
N2402      C2406   1.357       .  A
N2402      C2403   1.360       .  A
N2402      C2933   1.418       .  S
C2403      C2404   1.381       .  A
C2403      C2925   1.454       .  S
C2404      C2405   1.372       .  A
C2404      H2407   1.083       .  S
C2405      C2406   1.380       .  A
C2405      H2408   1.083       .  S
C2406      C2928   1.448       .  S
N2409      C2413   1.356       .  A
N2409      C2410   1.359       .  A
N2409      C2923   1.419       .  S
C2410      C2411   1.382       .  A
C2410      C2921   1.449       .  S
C2411      C2412   1.371       .  A
C2411      H2414   1.083       .  S
C2412      C2413   1.379       .  A
C2412      H2415   1.083       .  S
C2413      C2919   1.443       .  S
N2416      C2420   1.355       .  A
N2416      C2417   1.359       .  A
N2416      C2924   1.419       .  S
C2417      C2418   1.382       .  A
C2418      C2419   1.371       .  A
C2419      C2420   1.380       .  A
C2419      H2422   1.083       .  S
C2420      C2918   1.443       .  S
N2423      C2427   1.358       .  A
N2423      C2424   1.356       .  A
N2423      C2913   1.418       .  S
C2424      C2425   1.380       .  A
C2424      C2909   1.447       .  S
C2425      C2426   1.372       .  A
C2425      H2428   1.083       .  S
C2426      C2427   1.381       .  A
C2426      H2429   1.083       .  S
C2427      C2911   1.447       .  S
N2430      C2434   1.356   1_545  A
N2430      C2431   1.359   1_545  A
C2431      C2432   1.381       .  A
C2431      C2908   1.451       .  S
C2432      C2433   1.372       .  A
C2432      H2435   1.083       .  S
C2433      C2434   1.380       .  A
C2433      H2436   1.083       .  S
C2434      C2905   1.446   1_565  S
N2437      C2441   1.355       .  A
N2437      C2438   1.358       .  A
N2437      C2903   1.418       .  S
C2438      C2439   1.382       .  A
C2438      C2899   1.449       .  S
C2439      C2440   1.372       .  A
C2439      H2442   1.083       .  S
C2440      C2441   1.380       .  A
C2440      H2443   1.083       .  S
C2441      C2901   1.446       .  S
N2444      C2448   1.355       .  A
N2444      C2445   1.359       .  A
N2444      C2904   1.417       .  S
C2445      C2446   1.381       .  A
C2446      C2447   1.372       .  A
C2447      C2448   1.380       .  A
C2447      H2450   1.083       .  S
C2448      C2897   1.443       .  S
N2451      C2455   1.356       .  A
N2451      C2452   1.360       .  A
N2451      C2894   1.418       .  S
C2452      C2453   1.382       .  A
C2452      C2889   1.452       .  S
C2453      C2454   1.372       .  A
C2453      H2456   1.083       .  S
C2454      C2455   1.379       .  A
C2454      H2457   1.083       .  S
C2455      C2891   1.446       .  S
N2458      C2462   1.354       .  A
N2458      C2459   1.359       .  A
C2459      C2460   1.382       .  A
C2459      C2886   1.449       .  S
C2460      C2461   1.372       .  A
C2460      H2463   1.083       .  S
C2461      C2462   1.380       .  A
C2461      H2464   1.083       .  S
C2462      C2887   1.443   1_565  S
N2465      C2469   1.357       .  A
N2465      C2466   1.360       .  A
C2466      C2467   1.381       .  A
C2466      C2882   1.455       .  S
C2467      C2468   1.373       .  A
C2467      H2470   1.083       .  S
C2468      C2469   1.380       .  A
C2468      H2471   1.083       .  S
C2469      C2879   1.449       .  S
N2472      C2476   1.354       .  A
N2472      C2473   1.357       .  A
N2472      C2884   1.417       .  S
C2473      C2474   1.382       .  A
C2473      C2877   1.447       .  S
C2474      C2475   1.372       .  A
C2474      H2477   1.083       .  S
C2475      C2476   1.380       .  A
C2475      H2478   1.083       .  S
C2476      C2876   1.445       .  S
N2479      C2483   1.354       .  A
N2479      C2480   1.358       .  A
N2479      C2874   1.418       .  S
C2480      C2481   1.382       .  A
C2480      C2871   1.448       .  S
C2481      C2482   1.372       .  A
C2481      H2484   1.083       .  S
C2482      C2483   1.380       .  A
C2482      H2485   1.083       .  S
C2483      C2870   1.442       .  S
N2486      C2490   1.355       .  A
N2486      C2487   1.359       .  A
N2486      C2873   1.419       .  S
C2488      H2491   1.083       .  S
C2489      C2490   1.379       .  A
C2490      C2867   1.442       .  S
N2493      C2497   1.355       .  A
N2493      C2494   1.358       .  A
N2493      C2863   1.419       .  S
C2494      C2495   1.381       .  A
C2494      C2860   1.448       .  S
C2495      C2496   1.371       .  A
C2495      H2498   1.083       .  S
C2496      C2497   1.380       .  A
C2496      H2499   1.083       .  S
C2497      C2862   1.442   1_554  S
N2500      C2504   1.356       .  A
N2500      C2501   1.360       .  A
C2501      C2502   1.381       .  A
C2501      C2857   1.450       .  S
C2502      C2503   1.371       .  A
C2502      H2505   1.083       .  S
C2503      C2504   1.380       .  A
C2503      H2506   1.083       .  S
C2504      C2856   1.445       .  S
N2507      C2511   1.356       .  A
N2507      C2508   1.360       .  A
N2507      C2853   1.417       .  S
C2508      C2509   1.381       .  A
C2508      C2851   1.451       .  S
C2509      C2510   1.371       .  A
C2509      H2512   1.083       .  S
C2510      C2511   1.379       .  A
C2510      H2513   1.083       .  S
C2511      C2850   1.445       .  S
N2514      C2854   1.417       .  S
C2515      C2516   1.381       .  A
C2515      C2847   1.449       .  S
C2516      C2517   1.372       .  A
C2516      H2519   1.083       .  S
C2517      C2518   1.380   1_655  A
C2517      H2520   1.083       .  S
C2518      C2845   1.447       .  S
O2521      C2532   1.288       .  A
O2521     Eu2557   2.455       .  S
O2522      C2533   1.294       .  A
O2522     Eu2556   2.482       .  S
O2523      C2534   1.294       .  A
O2523     Eu2529   2.482       .  S
O2524      C2535   1.289       .  A
O2524     Eu2529   2.459       .  S
O2525      C2535   1.294       .  A
O2525     Eu2559   2.482       .  S
O2526      C2534   1.292       .  A
O2526     Eu2558   2.475       .  S
O2527      C2533   1.291       .  A
O2527     Eu2529   2.468       .  S
O2528      C2532   1.294       .  A
O2528     Eu2529   2.481       .  S
Eu2529     O2539   2.360       .  S
Eu2529     O2531   2.357       .  S
Eu2529     O2530   2.371       .  S
Eu2529     O2537   2.362       .  S
O2530     Eu2559   2.358       .  S
O2530     Eu2556   2.359       .  S
O2531     Eu2557   2.370       .  S
O2531     Eu2558   2.357       .  S
C2532      C3022   1.441       .  S
C2533      C2956   1.449       .  S
C2535      C2892   1.444       .  S
H2536      O2537   0.964       .  S
O2537     Eu2558   2.369       .  S
O2537     Eu2556   2.361       .  S
H2538      O2539   0.965       .  S
O2539     Eu2557   2.355       .  S
O2539     Eu2559   2.357       .  S
O2540      C2563   1.291       .  A
O2540     Eu2556   2.468       .  S
O2541      C2564   1.293       .  A
O2541     Eu2557   2.478       .  S
O2542      C2565   1.290       .  A
O2542     Eu2558   2.467       .  S
O2543      C2566   1.293       .  A
O2543     Eu2559   2.477       .  S
O2544      C2567   1.289       .  A
O2544     Eu2559   2.461       .  S
O2545      C2568   1.294       .  A
O2545     Eu2558   2.482       .  S
O2546      C2569   1.289       .  A
O2546     Eu2560   2.458       .  S
O2547      C2570   1.293       .  A
O2547     Eu2560   2.473       .  S
O2548      C2569   1.294       .  A
O2548     Eu2558   2.481       .  S
O2549      C2570   1.290       .  A
O2549     Eu2559   2.466       .  S
O2550      C2565   1.293       .  A
O2550     Eu2556   2.477       .  S
O2551      C2568   1.290       .  A
O2551     Eu2557   2.466       .  S
O2552      C2567   1.294       .  A
O2552     Eu2557   2.487       .  S
O2553      C2566   1.292       .  A
O2553     Eu2556   2.476       .  S
O2554      C2563   1.294       .  A
O2554     Eu2560   2.480       .  S
O2555      C2564   1.293       .  A
O2555     Eu2560   2.481       .  S
Eu2556     O2574   2.366       .  S
Eu2556     O2562   2.354       .  S
Eu2557     O2561   2.356       .  S
Eu2557     O2572   2.361       .  S
Eu2558     O2572   2.359       .  S
Eu2558     O2562   2.351       .  S
Eu2559     O2561   2.370       .  S
Eu2559     O2574   2.360       .  S
Eu2560     O2561   2.357       .  S
Eu2560     O2572   2.365       .  S
Eu2560     O2574   2.361       .  S
Eu2560     O2562   2.352       .  S
C2563      C2990   1.446       .  S
C2564      C2959   1.452       .  S
C2565      C2930   1.443       .  S
C2566      C2852   1.450       .  S
C2567      C2946   1.444       .  S
C2568      C2848   1.448       .  S
C2569      C2861   1.441       .  S
C2570      C3005   1.445       .  S
H2571      O2572   0.964       .  S
H2573      O2574   0.964       .  S
O2575      C2586   1.288       .  A
O2575     Eu2611   2.456   1_556  S
O2576      C2587   1.294       .  A
O2576     Eu2610   2.482       .  S
O2577     Eu2583   2.466   1_556  S
O2578      C2589   1.294       .  A
O2578     Eu2583   2.482       .  S
O2579      C2589   1.290       .  A
O2579     Eu2613   2.465       .  S
O2580      C2588   1.294       .  A
O2580     Eu2612   2.479   1_556  S
O2581     Eu2583   2.476       .  S
O2582      C2586   1.294       .  A
O2582     Eu2583   2.481   1_556  S
Eu2583     O2593   2.359       .  S
Eu2583     O2585   2.350   1_554  S
Eu2583     O2584   2.356       .  S
O2584     Eu2613   2.370       .  S
O2585     Eu2611   2.351   1_556  S
C2586      C3008   1.440       .  S
C2587      C2858   1.450       .  S
C2588      C2958   1.443       .  S
C2589      C2992   1.448       .  S
H2590      O2591   0.964       .  S
O2591     Eu2612   2.362       .  S
O2591     Eu2610   2.363       .  S
H2592      O2593   0.964       .  S
O2593     Eu2611   2.367       .  S
O2593     Eu2613   2.360       .  S
O2594     Eu2610   2.463       .  S
O2595      C2618   1.293       .  A
O2596      C2619   1.294       .  A
O2596     Eu2612   2.484       .  S
O2597      C2620   1.288       .  A
O2597     Eu2613   2.454       .  S
O2598      C2621   1.294       .  A
O2598     Eu2613   2.482       .  S
O2600      C2623   1.292       .  A
O2601      C2624   1.289       .  A
O2602      C2623   1.292       .  A
O2603      C2624   1.295   1_565  A
O2603     Eu2613   2.487       .  S
O2604      C2619   1.290       .  A
O2604     Eu2610   2.467       .  S
O2605      C2622   1.294   1_655  A
O2606      C2621   1.292       .  A
O2606     Eu2611   2.479       .  S
O2607      C2620   1.294       .  A
O2608      C2617   1.295       .  A
O2609      C2618   1.291       .  A
O2609     Eu2614   2.470   1_655  S
Eu2610     O2616   2.371       .  S
Eu2611     O2615   2.356       .  S
Eu2612     O2616   2.359       .  S
Eu2613     O2615   2.355       .  S
Eu2613     O2628   2.357       .  S
Eu2614     O2626   2.361       .  S
C2617      C2969   1.446       .  S
C2618      C2859   1.447       .  S
C2619      C2931   1.448       .  S
C2620      C2868   1.440       .  S
C2621      C2926   1.453       .  S
C2622      C2846   1.445       .  S
C2623      C2986   1.449       .  S
C2624      C2906   1.444       .  S
H2625      O2626   0.964       .  S
H2627      O2628   0.965       .  S
O2629      C2640   1.288       .  A
O2629     Eu2665   2.451       .  S
O2630      C2641   1.295       .  A
O2630     Eu2664   2.486       .  S
O2631      C2642   1.294       .  A
O2631     Eu2637   2.479       .  S
O2632      C2643   1.289       .  A
O2632     Eu2637   2.459       .  S
O2633      C2643   1.294       .  A
O2633     Eu2667   2.479       .  S
O2634      C2642   1.293       .  A
O2634     Eu2666   2.481       .  S
O2635      C2641   1.290       .  A
O2635     Eu2637   2.466       .  S
O2636      C2640   1.295       .  A
O2636     Eu2637   2.489       .  S
Eu2637     O2647   2.356       .  S
Eu2637     O2639   2.356       .  S
Eu2637     O2638   2.371       .  S
Eu2637     O2645   2.363       .  S
O2638     Eu2667   2.358       .  S
O2638     Eu2664   2.357       .  S
O2639     Eu2665   2.372       .  S
O2639     Eu2666   2.355       .  S
C2640      C3001   1.441       .  S
C2641      C2900   1.448       .  S
C2642      C2982   1.453       .  S
C2643      C2941   1.442       .  S
H2644      O2645   0.964       .  S
O2645     Eu2666   2.367       .  S
O2645     Eu2664   2.362       .  S
H2646      O2647   0.965       .  S
O2647     Eu2665   2.359       .  S
O2647     Eu2667   2.357       .  S
O2648      C2671   1.291       .  A
O2648     Eu2664   2.468       .  S
O2649      C2672   1.293       .  A
O2649     Eu2665   2.476       .  S
O2650      C2673   1.289       .  A
O2650     Eu2666   2.461       .  S
O2651      C2674   1.294       .  A
O2651     Eu2667   2.481       .  S
O2652      C2675   1.290       .  A
O2652     Eu2667   2.464       .  S
O2653      C2676   1.294       .  A
O2653     Eu2666   2.479       .  S
O2654      C2677   1.291       .  A
O2654     Eu2668   2.469       .  S
O2655      C2678   1.294       .  A
O2655     Eu2668   2.483       .  S
O2656      C2677   1.293       .  A
O2656     Eu2666   2.477       .  S
O2657      C2678   1.290       .  A
O2657     Eu2667   2.465       .  S
O2658      C2673   1.293       .  A
O2658     Eu2664   2.476       .  S
O2659      C2676   1.290       .  A
O2659     Eu2665   2.467       .  S
O2660      C2675   1.294       .  A
O2660     Eu2665   2.484       .  S
O2661      C2674   1.292       .  A
O2661     Eu2664   2.476       .  S
O2662      C2671   1.293       .  A
O2662     Eu2668   2.475       .  S
O2663      C2672   1.291       .  A
O2663     Eu2668   2.473       .  S
Eu2664     O2682   2.367       .  S
Eu2664     O2670   2.352       .  S
Eu2665     O2669   2.357       .  S
Eu2665     O2680   2.359       .  S
Eu2666     O2680   2.361       .  S
Eu2666     O2670   2.353       .  S
Eu2667     O2669   2.370       .  S
Eu2667     O2682   2.361       .  S
Eu2668     O2669   2.358       .  S
Eu2668     O2680   2.366       .  S
Eu2668     O2682   2.360       .  S
Eu2668     O2670   2.352       .  S
C2671      C2965   1.442       .  S
C2672      C2895   1.449       .  S
C2673      C2869   1.441       .  S
C2674      C2922   1.450       .  S
C2675      C2880   1.447       .  S
C2676      C2916   1.448       .  S
C2677      C2910   1.445       .  S
H2679      O2680   0.964       .  S
H2681      O2682   0.964       .  S
O2683      C2694   1.294       .  A
O2683     Eu2719   2.481       .  S
O2684      C2695   1.289       .  A
O2684     Eu2718   2.458       .  S
O2685      C2696   1.294       .  A
O2685     Eu2691   2.479       .  S
O2686      C2697   1.290       .  A
O2686     Eu2691   2.467       .  S
O2687      C2697   1.294       .  A
O2687     Eu2721   2.478       .  S
O2688      C2696   1.290       .  A
O2688     Eu2720   2.465       .  S
O2689      C2695   1.294       .  A
O2689     Eu2691   2.480       .  S
O2690      C2694   1.291       .  A
O2690     Eu2691   2.474       .  S
Eu2691     O2701   2.367       .  S
Eu2691     O2693   2.358       .  S
Eu2691     O2692   2.351       .  S
Eu2691     O2699   2.359       .  S
O2692     Eu2721   2.355       .  S
O2692     Eu2718   2.355       .  S
O2693     Eu2719   2.357       .  S
O2693     Eu2720   2.369       .  S
C2694      C3019   1.450       .  S
C2695      C2935   1.440       .  S
C2696      C2949   1.446       .  S
C2697      C2875   1.443       .  S
H2698      O2699   0.964       .  S
O2699     Eu2720   2.361       .  S
O2699     Eu2718   2.365       .  S
H2700      O2701   0.964       .  S
O2701     Eu2719   2.360       .  S
O2701     Eu2721   2.359       .  S
O2702      C2725   1.294       .  A
O2702     Eu2718   2.479       .  S
O2703      C2726   1.289       .  A
O2703     Eu2719   2.455       .  S
O2704      C2727   1.294       .  A
O2704     Eu2720   2.481       .  S
O2705      C2728   1.290       .  A
O2705     Eu2721   2.464       .  S
O2706      C2729   1.294       .  A
O2706     Eu2721   2.483       .  S
O2707      C2730   1.289       .  A
O2707     Eu2720   2.459       .  S
O2708      C2731   1.289       .  A
O2708     Eu2722   2.456       .  S
O2709      C2732   1.293       .  A
O2709     Eu2722   2.476       .  S
O2710      C2731   1.295       .  A
O2710     Eu2720   2.490       .  S
O2711      C2732   1.292       .  A
O2711     Eu2721   2.477       .  S
O2712      C2727   1.292       .  A
O2712     Eu2718   2.481       .  S
O2713      C2730   1.294       .  A
O2713     Eu2719   2.480       .  S
O2714      C2729   1.290       .  A
O2714     Eu2719   2.468       .  S
O2715      C2728   1.293       .  A
O2715     Eu2718   2.476       .  S
O2716      C2725   1.290       .  A
O2716     Eu2722   2.465       .  S
O2717      C2726   1.295       .  A
O2717     Eu2722   2.486       .  S
Eu2718     O2736   2.361       .  S
Eu2718     O2724   2.356       .  S
Eu2719     O2723   2.371       .  S
Eu2719     O2734   2.359       .  S
Eu2720     O2734   2.355       .  S
Eu2720     O2724   2.356       .  S
Eu2721     O2723   2.359       .  S
Eu2721     O2736   2.367       .  S
Eu2722     O2723   2.358       .  S
Eu2722     O2734   2.357       .  S
Eu2722     O2736   2.361       .  S
Eu2722     O2724   2.373       .  S
C2725      C3015   1.446       .  S
C2726      C2961   1.444       .  S
C2727      C2890   1.452       .  S
C2728      C2996   1.443       .  S
C2729      C2885   1.449       .  S
C2730      C3009   1.442       .  S
C2731      C2849   1.443       .  S
C2732      C2948   1.450       .  S
H2733      O2734   0.965       .  S
H2735      O2736   0.964       .  S
O2737      C2748   1.289       .  A
O2737     Eu2773   2.455       .  S
O2738      C2749   1.294       .  A
O2738     Eu2772   2.478       .  S
O2739      C2750   1.294       .  A
O2739     Eu2745   2.480       .  S
O2740      C2751   1.290       .  A
O2740     Eu2745   2.463       .  S
O2741      C2751   1.294       .  A
O2741     Eu2775   2.481       .  S
O2742      C2750   1.293       .  A
O2742     Eu2774   2.481       .  S
O2743      C2749   1.290       .  A
O2743     Eu2745   2.464       .  S
O2744      C2748   1.295       .  A
O2744     Eu2745   2.490       .  S
Eu2745     O2755   2.354       .  S
Eu2745     O2747   2.357       .  S
Eu2745     O2746   2.368       .  S
Eu2745     O2753   2.362       .  S
O2746     Eu2775   2.358       .  S
O2746     Eu2772   2.358       .  S
O2747     Eu2773   2.373       .  S
O2747     Eu2774   2.356       .  S
C2748      C2988   1.443       .  S
C2749      C2912   1.445       .  S
C2750      C2972   1.452       .  S
C2751      C2855   1.444       .  S
H2752      O2753   0.964       .  S
O2753     Eu2774   2.365       .  S
O2753     Eu2772   2.361       .  S
H2754      O2755   0.965       .  S
O2755     Eu2773   2.358       .  S
O2755     Eu2775   2.357       .  S
O2756      C2779   1.290       .  A
O2756     Eu2772   2.465       .  S
O2757      C2780   1.293       .  A
O2757     Eu2773   2.476       .  S
O2758      C2781   1.289       .  A
O2758     Eu2774   2.461       .  S
O2759      C2782   1.294       .  A
O2759     Eu2775   2.478       .  S
O2760      C2783   1.289       .  A
O2760     Eu2775   2.459       .  S
O2761      C2784   1.294       .  A
O2761     Eu2774   2.479       .  S
O2762      C2785   1.291       .  A
O2762     Eu2776   2.470       .  S
O2763      C2786   1.295       .  A
O2763     Eu2776   2.488       .  S
O2764      C2785   1.293       .  A
O2764     Eu2774   2.477       .  S
O2765      C2786   1.291       .  A
O2765     Eu2775   2.468       .  S
O2766      C2781   1.294       .  A
O2766     Eu2772   2.480       .  S
O2767      C2784   1.290       .  A
O2767     Eu2773   2.465       .  S
O2768      C2783   1.295       .  A
O2768     Eu2773   2.490       .  S
O2769      C2782   1.291       .  A
O2769     Eu2772   2.475       .  S
O2770      C2779   1.293       .  A
O2770     Eu2776   2.478       .  S
O2771      C2780   1.292       .  A
O2771     Eu2776   2.474       .  S
Eu2772     O2790   2.367       .  S
Eu2772     O2778   2.350       .  S
Eu2773     O2777   2.358       .  S
Eu2773     O2788   2.361       .  S
Eu2774     O2788   2.361       .  S
Eu2774     O2778   2.355       .  S
Eu2775     O2777   2.372       .  S
Eu2775     O2790   2.363       .  S
Eu2776     O2777   2.361       .  S
Eu2776     O2788   2.367       .  S
Eu2776     O2790   2.360       .  S
Eu2776     O2778   2.354       .  S
C2779      C2977   1.443       .  S
C2780      C2907   1.450       .  S
C2781      C2917   1.442       .  S
C2782      C2866   1.449       .  S
C2783      C2927   1.446       .  S
C2784      C2872   1.447       .  S
C2785      C2902   1.445       .  S
C2786      C2967   1.451       .  S
H2787      O2788   0.964       .  S
H2789      O2790   0.964       .  S
O2791     Eu2827   2.457       .  S
O2792      C2803   1.294       .  A
O2793     Eu2799   2.462       .  S
O2794      C2805   1.294       .  A
O2794     Eu2799   2.483       .  S
O2795     Eu2829   2.462       .  S
O2796      C2804   1.293   1_565  A
O2797      C2803   1.292       .  A
O2797     Eu2799   2.478       .  S
O2798      C2802   1.294       .  A
Eu2799     O2800   2.355       .  S
O2801     Eu2827   2.352       .  S
O2801     Eu2828   2.353   1_655  S
C2802      C3018   1.439       .  S
C2803      C2939   1.450       .  S
C2804      C2888   1.441       .  S
C2805      C2997   1.446       .  S
H2806      O2807   0.964   1_545  S
O2807     Eu2826   2.360       .  S
H2808      O2809   0.964       .  S
O2809     Eu2829   2.361       .  S
O2810     Eu2826   2.464       .  S
O2811      C2834   1.293       .  A
O2811     Eu2827   2.476       .  S
O2812      C2835   1.294       .  A
O2813      C2836   1.289       .  A
O2814      C2837   1.295       .  A
O2814     Eu2829   2.486       .  S
O2815      C2838   1.290       .  A
O2815     Eu2828   2.464   1_655  S
O2816      C2839   1.292       .  A
O2816     Eu2830   2.472       .  S
O2817      C2840   1.288       .  A
O2817     Eu2830   2.449       .  S
O2818      C2839   1.292       .  A
O2818     Eu2828   2.478   1_655  S
O2819      C2840   1.295       .  A
O2820      C2835   1.290       .  A
O2820     Eu2826   2.464       .  S
O2821      C2838   1.293       .  A
O2821     Eu2827   2.477       .  S
O2822     Eu2827   2.481       .  S
O2823      C2836   1.294       .  A
O2824      C2833   1.294   1_655  A
O2824     Eu2830   2.483       .  S
O2825      C2834   1.291       .  A
O2825     Eu2830   2.470       .  S
Eu2827     O2831   2.355       .  S
Eu2827     O2842   2.361       .  S
Eu2828     O2842   2.365   1_455  S
Eu2828     O2832   2.356       .  S
Eu2830     O2831   2.372       .  S
Eu2830     O2842   2.358       .  S
Eu2830     O2844   2.358       .  S
Eu2830     O2832   2.357   1_655  S
C2833      C2980   1.446       .  S
C2834      C2937   1.448       .  S
C2835      C2878   1.446       .  S
C2836      C2920   1.441       .  S
C2837      C2881   1.455       .  S
C2838      C2952   1.443       .  S
C2839      C3000   1.450       .  S
C2840      C2898   1.440       .  S
H2841      O2842   0.964       .  S
H2843      O2844   0.965       .  S
C2845      C2846   1.211       .  T
C2847      C2848   1.213       .  T
C2849      C2850   1.210       .  T
C2851      C2852   1.214       .  T
C2853      C2854   1.218       .  T
C2855      C2856   1.210       .  T
C2857      C2858   1.214       .  T
C2859      C2860   1.212       .  T
C2861      C2862   1.209       .  T
C2863      C2864   1.220       .  T
C2865      C2866   1.213       .  T
C2867      C2868   1.208       .  T
C2869      C2870   1.209       .  T
C2871      C2872   1.212       .  T
C2873      C2874   1.220       .  T
C2875      C2876   1.210       .  T
C2877      C2878   1.212       .  T
C2879      C2880   1.213       .  T
C2881      C2882   1.217       .  T
C2883      C2884   1.218       .  T
C2885      C2886   1.214       .  T
C2887      C2888   1.209       .  T
C2889      C2890   1.215       .  T
C2891      C2892   1.211       .  T
C2893      C2894   1.219       .  T
C2895      C2896   1.214       .  T
C2897      C2898   1.209       .  T
C2899      C2900   1.213       .  T
C2901      C2902   1.211       .  T
C2903      C2904   1.219       .  T
C2905      C2906   1.211       .  T
C2907      C2908   1.214       .  T
C2909      C2910   1.211       .  T
C2913      C2914   1.220       .  T
C2915      C2916   1.213       .  T
C2917      C2918   1.209       .  T
C2919      C2920   1.209       .  T
C2921      C2922   1.214       .  T
C2923      C2924   1.220       .  T
C2925      C2926   1.216       .  T
C2927      C2928   1.212       .  T
C2929      C2930   1.210       .  T
C2931      C2932   1.213       .  T
C2933      C2934   1.219       .  T
C2935      C2936   1.208       .  T
C2937      C2938   1.214       .  T
C2939      C2940   1.214       .  T
C2941      C2942   1.210       .  T
C2943      C2944   1.219       .  T
C2945      C2946   1.211       .  T
C2949      C2950   1.212       .  T
C2951      C2952   1.210       .  T
C2953      C2954   1.219       .  T
C2957      C2958   1.210       .  T
C2959      C2960   1.216       .  T
C2961      C2962   1.211       .  T
C2963      C2964   1.219       .  T
C2965      C2966   1.210       .  T
C2967      C2968   1.215       .  T
C2969      C2970   1.212       .  T
C2971      C2972   1.216       .  T
C2973      C2974   1.219       .  T
C2975      C2976   1.213       .  T
C2977      C2978   1.210       .  T
C2981      C2982   1.216       .  T
C2983      C2984   1.219       .  T
C2985      C2986   1.214       .  T
C2987      C2988   1.210       .  T
C2989      C2990   1.212       .  T
C2991      C2992   1.213       .  T
C2993      C2994   1.220       .  T
C2995      C2996   1.210       .  T
C2997      C2998   1.212       .  T
C2999      C3000   1.214       .  T
C3001      C3002   1.209       .  T
C3003      C3004   1.219       .  T
C3005      C3006   1.211       .  T
C3007      C3008   1.208       .  T
C3009      C3010   1.209       .  T
C3011      C3012   1.214       .  T
C3013      C3014   1.219       .  T
C3015      C3016   1.212       .  T
C3017      C3018   1.208       .  T
C3019      C3020   1.214       .  T
C3021      C3022   1.209       .  T
C3023      C3024   1.219       .  T
