geometry optimzed in LAMMPS
_audit_creation_date              2020-11-30 
_audit_creation_method            'lammps2cif' 
_symmetry_space_group_name_H-M    'P1' 
_symmetry_Int_Tables_number       1 
_symmetry_cell_setting            triclinic 
loop_ 
_symmetry_equiv_pos_as_xyz 
  x,y,z 
_cell_length_a                    25.47305043 
_cell_length_b                    25.479085065660126 
_cell_length_c                    25.475281395567485 
_cell_angle_alpha                 90.08993543283508 
_cell_angle_beta                  90.04704358266628 
_cell_angle_gamma                 89.7979500703361 
loop_ 
_atom_site_label 
_atom_site_type_symbol 
_atom_site_fract_x 
_atom_site_fract_y 
_atom_site_fract_z 
_atom_site_charge 
C1          C  0.12978260  0.72895303  0.95249496     0.79100
N2          N  0.15558279  0.73013323  0.99873688    -0.79200
C3          C  0.12929188  0.72886238  0.04469926     0.81600
N4          N  0.07569057  0.72722677  0.04467853    -0.79100
C5          C  0.04843706  0.72691248  0.99848371     0.81700
N6          N  0.07596402  0.72714783  0.95223093    -0.80800
C7          C  0.37587873  0.53047663  0.00135455     0.79100
N8          N  0.35943835  0.55236108  0.04721546    -0.79200
C9          C  0.32911268  0.59608057  0.04652187     0.81600
N10         N  0.31610314  0.61806420  0.99970118    -0.79100
C11         C  0.33148749  0.59569844  0.95370369     0.81700
N12         N  0.36162131  0.55195950  0.95468936    -0.80800
C13         C  0.90756485  0.21247399  0.04861674     0.79100
N14         N  0.96143448  0.21356111  0.04898346    -0.79200
C15         C  0.98910953  0.21302575  0.00277792     0.81600
N16         N  0.96191767  0.21260007  0.95651691    -0.79100
C17         C  0.90827267  0.21153477  0.95641359     0.81700
N18         N  0.88188428  0.21108012  0.00233391    -0.80800
C19         C  0.66220309  0.41106969  0.00194949     0.79100
N20         N  0.67684751  0.38934128  0.95530777    -0.79200
C21         C  0.70736439  0.34562161  0.95477334     0.81600
N22         N  0.72212758  0.32355166  0.00109955    -0.79100
C23         C  0.70847778  0.34579711  0.04767693     0.81700
N24         N  0.67836053  0.38946066  0.04787336    -0.80800
C25         C  0.77855074  0.92797054  0.11212357     0.79100
N26         N  0.77743411  0.92770801  0.05848834    -0.79200
C27         C  0.77717596  0.97379616  0.03115924     0.81600
N28         N  0.77679965  0.02011677  0.05858730    -0.79100
C29         C  0.77787700  0.01999685  0.11238480     0.81700
N30         N  0.77914404  0.97396931  0.13829280    -0.80800
C31         C  0.57958869  0.97351113  0.36199791     0.79100
N32         N  0.60075578  0.02001679  0.34674920    -0.79200
C33         C  0.64388808  0.02036679  0.31565851     0.81600
N34         N  0.66589081  0.97404887  0.30068856    -0.79100
C35         C  0.64426445  0.92752489  0.31481481     0.81700
N36         N  0.60119324  0.92741020  0.34576455    -0.80800
C37         C  0.26157072  0.01286955  0.88939100     0.79100
N38         N  0.26277067  0.01327057  0.94306305    -0.79200
C39         C  0.26184877  0.96727236  0.97060595     0.81600
N40         N  0.26083830  0.92085895  0.94330759    -0.79100
C41         C  0.25945089  0.92079677  0.88948921     0.81700
N42         N  0.25948363  0.96678064  0.86341679    -0.80800
C43         C  0.45887936  0.96566612  0.64067130     0.79100
N44         N  0.43605128  0.91992183  0.65540459    -0.79200
C45         C  0.39163634  0.92058613  0.68427542     0.81600
N46         N  0.37000975  0.96732162  0.69822592    -0.79100
C47         C  0.39313333  0.01338685  0.68488128     0.81700
N48         N  0.43757235  0.01252384  0.65553322    -0.80800
C49         C  0.90851575  0.73195796  0.04543674     0.79100
N50         N  0.88227434  0.73241885  0.99947275    -0.79200
C51         C  0.90807986  0.72956137  0.95336157     0.81600
N52         N  0.96172880  0.72700632  0.95291423    -0.79100
C53         C  0.98938062  0.72736976  0.99890487     0.81700
N54         N  0.96224680  0.72920970  0.04531650    -0.80800
C55         C  0.60571623  0.64955304  0.00143586     0.79100
N56         N  0.63160683  0.63944268  0.04684441    -0.79200
C57         C  0.68167249  0.62149766  0.04720605     0.81600
N58         N  0.70708303  0.61521930  0.00036486    -0.79100
C59         C  0.68072998  0.62119915  0.95397429     0.81700
N60         N  0.63046128  0.63912185  0.95530639    -0.80800
C61         C  0.12937662  0.20747294  0.95621775     0.79100
N62         N  0.15537946  0.20559232  0.00228862    -0.79200
C63         C  0.12938415  0.20767964  0.04834877     0.81600
N64         N  0.07575288  0.21092884  0.04860804    -0.79100
C65         C  0.04826092  0.21176259  0.00251538     0.81700
N66         N  0.07562629  0.21069072  0.95618159    -0.80800
C67         C  0.43145024  0.29184781  0.99848763     0.79100
N68         N  0.40535840  0.30233334  0.95316162    -0.79200
C69         C  0.35511415  0.32015391  0.95338528     0.81600
N70         N  0.33003457  0.32598695  0.00053312    -0.79100
C71         C  0.35674545  0.31970596  0.04669173     0.81700
N72         N  0.40689257  0.30183693  0.04473548    -0.80800
C73         C  0.78125691  0.92674480  0.89122818     0.79100
N74         N  0.78349728  0.97269204  0.86519038    -0.79200
C75         C  0.78217547  0.01885461  0.89111112     0.81600
N76         N  0.77933433  0.01933330  0.94470410    -0.79100
C77         C  0.77815175  0.97331847  0.97217566     0.81700
N78         N  0.77845590  0.92688989  0.94492668    -0.80800
C79         C  0.69965943  0.96663985  0.59091942     0.79100
N80         N  0.68778254  0.92209790  0.61740768    -0.79200
C81         C  0.66788914  0.92341469  0.66667717     0.81600
N82         N  0.66143961  0.97098457  0.69069935    -0.79100
C83         C  0.66926297  0.01649263  0.66352851     0.81700
N84         N  0.68905606  0.01351299  0.61415187    -0.80800
C85         C  0.25706556  0.01488743  0.11044746     0.79100
N86         N  0.26012802  0.01451410  0.05674748    -0.79200
C87         C  0.26082493  0.96797917  0.02970487     0.81600
N88         N  0.25981716  0.92211508  0.05748548    -0.79100
C89         C  0.25690268  0.92286107  0.11113001     0.81700
N90         N  0.25512431  0.96911051  0.13677109    -0.80800
C91         C  0.34090095  0.97192495  0.41480514     0.79100
N92         N  0.35054944  0.92581261  0.38975387    -0.79200
C93         C  0.36854346  0.92424455  0.33966339     0.81600
N94         N  0.37540734  0.97059305  0.31366950    -0.79100
C95         C  0.36987355  0.01750072  0.33932733     0.81700
N96         N  0.35195726  0.01734394  0.38940064    -0.80800
C97         C  0.97478344  0.07939807  0.76171694     0.79100
N98         N  0.02073798  0.10544378  0.76274161    -0.79200
C99         C  0.06685677  0.07942175  0.76078075     0.81600
N100        N  0.06721864  0.02574176  0.75859538    -0.79100
C101        C  0.02111121  0.99838609  0.75847770     0.81700
N102        N  0.97480199  0.02574922  0.75937592    -0.80800
C103        C  0.01811703  0.37995231  0.67824657     0.79100
N104        N  0.06436803  0.35539532  0.66796630    -0.79200
C105        C  0.06606783  0.30548824  0.64930914     0.81600
N106        N  0.01987614  0.27922666  0.64233200    -0.79100
C107        C  0.97288219  0.30462706  0.64825187     0.81700
N108        N  0.97290544  0.35442622  0.66687857    -0.80800
C109        C  0.06684685  0.85790653  0.76106547     0.79100
N110        N  0.06727973  0.91164050  0.75906678    -0.79200
C111        C  0.02115885  0.93942118  0.75836210     0.81600
N112        N  0.97483312  0.91248813  0.75834628    -0.79100
C113        C  0.97468689  0.85887027  0.76017254     0.81700
N114        N  0.02059570  0.83236154  0.76195841    -0.80800
C115        C  0.01846631  0.61169350  0.56068164     0.79100
N116        N  0.97248582  0.62816800  0.58233931    -0.79200
C117        C  0.97298924  0.65819327  0.62621417     0.81600
N118        N  0.01969909  0.67086763  0.64858069    -0.79100
C119        C  0.06580489  0.65548904  0.62650488     0.81700
N120        N  0.06505307  0.62565295  0.58256782    -0.80800
C121        C  0.06205462  0.86157806  0.24134371     0.79100
N122        N  0.01596784  0.83589398  0.23920260    -0.79200
C123        C  0.97000929  0.86222557  0.24045817     0.81600
N124        N  0.96991918  0.91584869  0.24323673    -0.79100
C125        C  0.01616346  0.94290766  0.24440949     0.81700
N126        N  0.06233769  0.91525065  0.24406868    -0.80800
C127        C  0.02030429  0.56066537  0.32244485     0.79100
N128        N  0.97389657  0.58496412  0.33259106    -0.79200
C129        C  0.97165045  0.63465067  0.35163554     0.81600
N130        N  0.01763582  0.66115619  0.35900561    -0.79100
C131        C  0.06488208  0.63618036  0.35305486     0.81700
N132        N  0.06540163  0.58640533  0.33413624    -0.80800
C133        C  0.97045132  0.08332302  0.24283203     0.79100
N134        N  0.97010082  0.02961247  0.24480087    -0.79200
C135        C  0.01623389  0.00187128  0.24474430     0.81600
N136        N  0.06252054  0.02884254  0.24381914    -0.79100
C137        C  0.06257434  0.08247098  0.24176275     0.81700
N138        N  0.01663220  0.10893847  0.24093691    -0.80800
C139        C  0.01707620  0.33140240  0.43913094     0.79100
N140        N  0.06369166  0.31664688  0.41744606    -0.79200
C141        C  0.06415512  0.28636383  0.37363751     0.81600
N142        N  0.01787116  0.27176572  0.35154653    -0.79100
C143        C  0.97132516  0.28543239  0.37375938     0.81700
N144        N  0.97109923  0.31548031  0.41744400    -0.80800
C145        C  0.27738751  0.51517594  0.38943688     0.79100
N146        N  0.27781518  0.46938478  0.36285632    -0.79200
C147        C  0.27583920  0.42313591  0.38837364     0.81600
N148        N  0.27419633  0.42235460  0.44200884    -0.79100
C149        C  0.27462275  0.46811058  0.46999516     0.81700
N150        N  0.27561775  0.51472316  0.44320934    -0.80800
C151        C  0.07963669  0.46871197  0.14175856     0.79100
N152        N  0.10217835  0.42301571  0.15746210    -0.79200
C153        C  0.14574618  0.42373578  0.18764830     0.81600
N154        N  0.16690467  0.47052764  0.20176392    -0.79100
C155        C  0.14384976  0.51655516  0.18742167     0.81700
N156        N  0.10027501  0.51555584  0.15690194    -0.80800
O157        O  0.20955748  0.73816970  0.09044091    -0.87600
O158        O  0.15518307  0.66312202  0.36525220    -0.87700
O159        O  0.14398329  0.60977432  0.20201661    -0.89400
O160        O  0.10746773  0.78052297  0.23100524    -0.88200
O161        O  0.15242220  0.85365099  0.25784811    -0.87800
O162        O  0.22016091  0.56142967  0.20839290    -0.89100
O163        O  0.10552174  0.68743718  0.29390997    -0.87600
O164        O  0.13558724  0.71400718  0.13562504    -0.87200
Zr165      Zr  0.16541447  0.70209791  0.22458222     2.84300
O166        O  0.19321638  0.74747076  0.29924217    -1.09200
O167        O  0.23817221  0.67198211  0.17712126    -1.09900
C168        C  0.15992379  0.72719797  0.09352782     1.05500
C169        C  0.11123897  0.66657863  0.33904585     1.05500
C170        C  0.17055428  0.56613669  0.19993604     1.08500
C171        C  0.11053457  0.83007450  0.24314540     1.06200
H172        H  0.19807422  0.61717392  0.28954274     0.31800
O173        O  0.21778237  0.64714772  0.27769488    -1.30100
H174        H  0.19118772  0.79592363  0.17465839     0.31500
O175        O  0.21307822  0.77412381  0.19663583    -1.31800
O176        O  0.32750867  0.69894102  0.40687205    -0.87600
O177        O  0.37817592  0.76765933  0.12873675    -0.89100
O178        O  0.28642260  0.56100725  0.30872251    -0.87600
O179        O  0.20734332  0.83331798  0.36385630    -0.87700
O180        O  0.24689500  0.87798975  0.19221171    -0.87400
O181        O  0.31408984  0.59753593  0.13915218    -0.87200
O182        O  0.42492146  0.66421827  0.27006154    -0.87600
O183        O  0.38150287  0.83505083  0.30744032    -0.87000
O184        O  0.38018307  0.59018605  0.24449696    -0.88100
O185        O  0.30482110  0.88153422  0.29578544    -0.87300
O186        O  0.26223462  0.60616412  0.38280403    -0.87700
O187        O  0.30704636  0.67319093  0.09067894    -0.87400
O188        O  0.27326837  0.83264499  0.11866828    -0.87000
O189        O  0.22530164  0.75885009  0.41167674    -0.87400
O190        O  0.40031503  0.72709998  0.36205741    -0.87700
O191        O  0.42618867  0.76535620  0.20514692    -0.89100
Zr192      Zr  0.24783806  0.69357257  0.35058783     2.83100
Zr193      Zr  0.28616155  0.74462780  0.14931602     2.83500
Zr194      Zr  0.29129592  0.61924820  0.23086479     2.84100
Zr195      Zr  0.23965868  0.82080542  0.27087757     2.83400
Zr196      Zr  0.36736021  0.74246205  0.27514246     2.84200
O197        O  0.31351893  0.79460613  0.22198270    -1.09700
O198        O  0.32094604  0.66789766  0.30254305    -1.09200
C199        C  0.37699067  0.71130663  0.40372942     1.05500
C200        C  0.42157306  0.77142860  0.15526038     1.08100
C201        C  0.27582614  0.56409017  0.35860640     1.05700
C202        C  0.20776018  0.80548076  0.40696163     1.06000
C203        C  0.25875612  0.87461308  0.14257236     1.05600
C204        C  0.31570551  0.62364413  0.09549202     1.05200
C205        C  0.42191337  0.61449909  0.25887546     1.05600
C206        C  0.35260640  0.87747044  0.31031838     1.05100
H207        H  0.36932645  0.68005143  0.18281514     0.31800
O208        O  0.33948831  0.69235360  0.20270333    -1.30800
H209        H  0.30505897  0.78810218  0.35433911     0.31800
O210        O  0.29388129  0.76851565  0.32385974    -1.32100
C211        C  0.40751264  0.23044601  0.45621402     0.79100
N212        N  0.46126976  0.22880324  0.45612043    -0.79200
C213        C  0.48864623  0.22825198  0.50241953     0.81600
N214        N  0.46125440  0.22809903  0.54851439    -0.79100
C215        C  0.40758123  0.22977734  0.54821307     0.81700
N216        N  0.38150676  0.23131595  0.50220582    -0.80800
C217        C  0.16016196  0.02889398  0.49976315     0.79100
N218        N  0.17493592  0.05124237  0.45361910    -0.79200
C219        C  0.20417114  0.09555361  0.45392839     0.81600
N220        N  0.21774327  0.11760584  0.50056456    -0.79100
C221        C  0.20406821  0.09497608  0.54680039     0.81700
N222        N  0.17503891  0.05059564  0.54626176    -0.80800
O223        O  0.25273025  0.05802452  0.80859539    -0.87600
O224        O  0.32832417  0.33205176  0.86271492    -0.87700
O225        O  0.38115877  0.17004764  0.87375011    -0.89400
O226        O  0.21043645  0.19732323  0.91044998    -0.88200
O227        O  0.13714741  0.22455678  0.86571789    -0.87800
O228        O  0.42932673  0.17557511  0.79761335    -0.89100
O229        O  0.30358375  0.26111984  0.91235273    -0.87600
O230        O  0.27744583  0.10339428  0.88247024    -0.87200
Zr231      Zr  0.28874732  0.19192444  0.85218121     2.84300
O232        O  0.24329810  0.26679517  0.82485825    -1.09200
O233        O  0.31865245  0.14410862  0.77933932    -1.09900
C234        C  0.26387223  0.06131951  0.85830541     1.05500
C235        C  0.32483899  0.30599675  0.90670480     1.05500
C236        C  0.42472803  0.16786116  0.84731113     1.08500
C237        C  0.16078265  0.20943183  0.90754611     1.06200
H238        H  0.37356451  0.25672848  0.81940456     0.31800
O239        O  0.34347433  0.24484337  0.79975424    -1.30100
H240        H  0.19489737  0.14184462  0.82638159     0.31500
O241        O  0.21661263  0.16376479  0.80454955    -1.31800
O242        O  0.28992032  0.37429798  0.69038016    -0.87600
O243        O  0.22060234  0.09538023  0.63954890    -0.89100
O244        O  0.42924332  0.27631081  0.73077942    -0.87600
O245        O  0.15699082  0.33137328  0.81002033    -0.87700
O246        O  0.11224893  0.16009004  0.77076142    -0.87400
O247        O  0.39290725  0.10632831  0.70105609    -0.87200
O248        O  0.32670280  0.23767501  0.59345472    -0.87600
O249        O  0.15511192  0.27360481  0.63614160    -0.87000
O250        O  0.40099541  0.21232421  0.63822183    -0.88100
O251        O  0.10915063  0.26225744  0.71297202    -0.87300
O252        O  0.38384909  0.35044208  0.75466470    -0.87700
O253        O  0.31697538  0.05842786  0.70794499    -0.87400
O254        O  0.15722627  0.08631045  0.74419386    -0.87000
O255        O  0.23162600  0.37907768  0.79321622    -0.87400
O256        O  0.26154967  0.32953990  0.61743218    -0.87700
O257        O  0.22382734  0.17182619  0.59189181    -0.89100
Zr258      Zr  0.29685279  0.31789461  0.76997805     2.83100
Zr259      Zr  0.24562761  0.11630758  0.73131031     2.83500
Zr260      Zr  0.37132566  0.19780433  0.72629881     2.84100
Zr261      Zr  0.16990032  0.23815666  0.77842643     2.83400
Zr262      Zr  0.24786591  0.24217111  0.65029537     2.84200
O263        O  0.19600708  0.18939559  0.70438768    -1.09700
O264        O  0.32244272  0.26958885  0.69687126    -1.09200
C265        C  0.27711456  0.37133474  0.64090822     1.05500
C266        C  0.21676536  0.12204796  0.59626760     1.08100
C267        C  0.42595414  0.32637516  0.74092647     1.05700
C268        C  0.18475188  0.37447585  0.80999792     1.06000
C269        C  0.11535263  0.11047036  0.75874722     1.05600
C270        C  0.36643075  0.06292247  0.69870362     1.05200
C271        C  0.37658989  0.22688405  0.59659624     1.05600
C272        C  0.11291167  0.27639124  0.66512116     1.05100
H273        H  0.30988258  0.14978572  0.64807996     0.31800
O274        O  0.29787182  0.16960777  0.67806858    -1.30800
H275        H  0.20208436  0.32123398  0.71282714     0.31800
O276        O  0.22185602  0.29083240  0.72396196    -1.32100
C277        C  0.40844837  0.70932048  0.45224396     0.79100
N278        N  0.46214926  0.71227771  0.45214139    -0.79200
C279        C  0.48950519  0.71319214  0.49846242     0.81600
N280        N  0.46212796  0.71245157  0.54456819    -0.79100
C281        C  0.40854582  0.70962144  0.54431220     0.81700
N282        N  0.38250103  0.70769510  0.49828402    -0.80800
C283        C  0.10655741  0.78949559  0.50320469     0.79100
N284        N  0.12986365  0.80108550  0.45675447    -0.79200
C285        C  0.17926991  0.82058060  0.45433043     0.81600
N286        N  0.20651017  0.82709673  0.50010826    -0.79100
C287        C  0.18252532  0.81962656  0.54745206     0.81700
N288        N  0.13311032  0.80005397  0.54818721    -0.80800
C289        C  0.27880928  0.51236464  0.61035970     0.79100
N290        N  0.28045645  0.46613512  0.63606107    -0.79200
C291        C  0.27864367  0.42019572  0.60973405     0.81600
N292        N  0.27579829  0.42050902  0.55597049    -0.79100
C293        C  0.27519555  0.46707539  0.52901375     0.81700
N294        N  0.27614558  0.51294208  0.55679731    -0.80800
C295        C  0.19727230  0.47008814  0.91281369     0.79100
N296        N  0.18724749  0.42384329  0.88837383    -0.79200
C297        C  0.16904923  0.42178737  0.83844959     0.81600
N298        N  0.16253280  0.46781071  0.81168186    -0.79100
C299        C  0.16848503  0.51500978  0.83658249     0.81700
N300        N  0.18654387  0.51535989  0.88673361    -0.80800
O301        O  0.21122113  0.73776050  0.90699240    -0.87600
O302        O  0.15867895  0.66965335  0.62734836    -0.87700
O303        O  0.11220436  0.77636079  0.76965606    -0.89400
O304        O  0.15538756  0.60456244  0.80674628    -0.88200
O305        O  0.22906582  0.55599775  0.78717349    -0.87800
O306        O  0.15721362  0.85005914  0.74414143    -0.89100
O307        O  0.11072693  0.67341527  0.70377940    -0.87600
O308        O  0.13750271  0.71197834  0.86186328    -0.87200
Zr309      Zr  0.16917999  0.69671811  0.77417587     2.84300
O310        O  0.22204137  0.64329163  0.72061885    -1.09200
O311        O  0.21754533  0.76977578  0.80153854    -1.09900
C312        C  0.16135508  0.72661314  0.90382016     1.05500
C313        C  0.11524556  0.66669417  0.65391768     1.05500
C314        C  0.11537805  0.82623413  0.75871329     1.08500
C315        C  0.18295940  0.56124672  0.80601773     1.06200
H316        H  0.16706718  0.75642742  0.68138829     0.31800
O317        O  0.19730572  0.74465248  0.70103496    -1.30100
H318        H  0.23138980  0.64984912  0.85170215     0.31500
O319        O  0.24309781  0.66945498  0.82152263    -1.31800
O320        O  0.32824235  0.69851775  0.58971248    -0.87600
O321        O  0.38295796  0.77504189  0.86395708    -0.89100
O322        O  0.21219271  0.83253026  0.63674096    -0.87600
O323        O  0.28952428  0.55773460  0.69092991    -0.87700
O324        O  0.31808582  0.59632313  0.86061770    -0.87400
O325        O  0.25004128  0.87523207  0.80824324    -0.87200
O326        O  0.39056771  0.82820307  0.69993955    -0.87600
O327        O  0.42936930  0.65917678  0.72883667    -0.87000
O328        O  0.31437986  0.87674856  0.70425626    -0.88100
O329        O  0.38481643  0.58590348  0.75566576    -0.87300
O330        O  0.23378291  0.75979562  0.58773798    -0.87700
O331        O  0.27558917  0.83009225  0.88204234    -0.87400
O332        O  0.31371021  0.67271806  0.90871279    -0.87000
O333        O  0.26312205  0.60293761  0.61763817    -0.87400
O334        O  0.40144265  0.72510497  0.63485574    -0.87700
O335        O  0.43153265  0.75506424  0.79055728    -0.89100
Zr336      Zr  0.25119309  0.69147836  0.64817991     2.83100
Zr337      Zr  0.29075602  0.74262996  0.84999505     2.83500
Zr338      Zr  0.24472340  0.81832421  0.72868155     2.84100
Zr339      Zr  0.29632582  0.61658528  0.76781757     2.83400
Zr340      Zr  0.37060058  0.73607674  0.72315952     2.84200
O341        O  0.34439595  0.68897749  0.79737477    -1.09700
O342        O  0.29806251  0.76550659  0.67513899    -1.09200
C343        C  0.37759885  0.71085545  0.59285081     1.05500
C344        C  0.42628324  0.77416780  0.83658275     1.08100
C345        C  0.21388183  0.80549398  0.59323992     1.05700
C346        C  0.27740052  0.56089404  0.64149190     1.06000
C347        C  0.32055434  0.62291434  0.90416083     1.05600
C348        C  0.26119199  0.87205120  0.85812502     1.05200
C349        C  0.36407752  0.87175338  0.69679238     1.05600
C350        C  0.42653817  0.60978327  0.74087016     1.05100
H351        H  0.33779092  0.82035409  0.78795915     0.31800
O352        O  0.31811363  0.79013492  0.77639392    -1.30800
H353        H  0.34625316  0.64111294  0.67262829     0.31800
O354        O  0.32439646  0.66294657  0.69459721    -1.32100
C355        C  0.75837546  0.42803187  0.39085539     0.79100
N356        N  0.76126921  0.42780197  0.44437076    -0.79200
C357        C  0.76253849  0.47382613  0.47180879     0.81600
N358        N  0.76211539  0.52020641  0.44449918    -0.79100
C359        C  0.75930094  0.52015573  0.39069828     0.81700
N360        N  0.75708094  0.47405346  0.36475104    -0.80800
C361        C  0.84222080  0.47069451  0.08885756     0.79100
N362        N  0.85206986  0.42563939  0.11542681    -0.79200
C363        C  0.86949763  0.42602010  0.16565781     0.81600
N364        N  0.87557446  0.47329787  0.19039049    -0.79100
C365        C  0.87002308  0.51929534  0.16325787     0.81700
N366        N  0.85264583  0.51716238  0.11289967    -0.80800
C367        C  0.56273036  0.58360987  0.26077547     0.79100
N368        N  0.56284333  0.52977615  0.25959854    -0.79200
C369        C  0.51650314  0.50244940  0.25977817     0.81600
N370        N  0.47039567  0.52996203  0.25994389    -0.79100
C371        C  0.47057980  0.58360597  0.26114233     0.81700
N372        N  0.51659029  0.60965183  0.26191962    -0.80800
C373        C  0.51577153  0.82743601  0.06068234     0.79100
N374        N  0.56254450  0.81283218  0.08203654    -0.79200
C375        C  0.56343964  0.78347967  0.12630853     0.81600
N376        N  0.51734841  0.76976155  0.14935728    -0.79100
C377        C  0.47057372  0.78337220  0.12754629     0.81700
N378        N  0.46997843  0.81238588  0.08325349    -0.80800
O379        O  0.78713181  0.88271410  0.19270011    -0.87600
O380        O  0.70901369  0.61020195  0.13768040    -0.87700
O381        O  0.82782360  0.74336177  0.09118603    -0.89400
O382        O  0.65681708  0.77046660  0.12738402    -0.88200
O383        O  0.60825631  0.76348286  0.20306884    -0.87800
O384        O  0.90107649  0.71659805  0.13619703    -0.89100
O385        O  0.73092366  0.68223341  0.08811423    -0.87600
O386        O  0.76244050  0.83764282  0.11869964    -0.87200
Zr387      Zr  0.74948671  0.74950866  0.14898956     2.84300
O388        O  0.69462579  0.69658425  0.20088652    -1.09200
O389        O  0.82158321  0.77754160  0.19684948    -1.09900
C390        C  0.77637206  0.87950037  0.14295502     1.05500
C391        C  0.71132497  0.63661119  0.09380663     1.05500
C392        C  0.87740587  0.73119592  0.09423053     1.08500
C393        C  0.61302551  0.77168299  0.15351802     1.06200
H394        H  0.80643877  0.65473396  0.14610234     0.31800
O395        O  0.79497058  0.67469462  0.17624541    -1.30100
H396        H  0.69887082  0.82681380  0.20918521     0.31500
O397        O  0.71892627  0.79708453  0.22151547    -1.31800
O398        O  0.74900758  0.56582975  0.30950513    -0.87600
O399        O  0.81569175  0.84549759  0.36187854    -0.89100
O400        O  0.88219604  0.60959935  0.19263283    -0.87600
O401        O  0.60814793  0.66497860  0.26881356    -0.87700
O402        O  0.64521326  0.83485839  0.29902970    -0.87400
O403        O  0.92454302  0.78193166  0.22946538    -0.87200
O404        O  0.88192092  0.66553173  0.36435496    -0.87600
O405        O  0.71079974  0.70496440  0.40818992    -0.87000
O406        O  0.92885657  0.67900215  0.28849795    -0.88100
O407        O  0.63668564  0.73033096  0.36308654    -0.87300
O408        O  0.80666302  0.56246940  0.20699752    -0.87700
O409        O  0.87969344  0.85541234  0.25688990    -0.87400
O410        O  0.72101474  0.88310798  0.29281457    -0.87000
O411        O  0.65355528  0.59093292  0.24458205    -0.87400
O412        O  0.77561245  0.61082367  0.38303535    -0.87700
O413        O  0.81222127  0.76900446  0.40944039    -0.89100
Zr414      Zr  0.74099192  0.62321376  0.23040974     2.83100
Zr415      Zr  0.79185376  0.82458778  0.27000591     2.83500
Zr416      Zr  0.86800567  0.70307077  0.22325365     2.84100
Zr417      Zr  0.66638793  0.74312109  0.27453943     2.83400
Zr418      Zr  0.78931584  0.69838360  0.35083754     2.84200
O419        O  0.73968926  0.77105147  0.32300620    -1.09700
O420        O  0.81566948  0.65016132  0.27702553    -1.09200
C421        C  0.76105303  0.56885926  0.35922816     1.05500
C422        C  0.81919346  0.81881747  0.40513101     1.08100
C423        C  0.85403734  0.56674331  0.19152826     1.05700
C424        C  0.61138766  0.61499409  0.25828159     1.06000
C425        C  0.67151035  0.87838348  0.30141584     1.05600
C426        C  0.92143194  0.83143398  0.24181362     1.05200
C427        C  0.92456424  0.66358724  0.33587410     1.05600
C428        C  0.66097258  0.71615742  0.40496257     1.05100
H429        H  0.87162236  0.76329215  0.31709680     0.31800
O430        O  0.84141725  0.75157786  0.29741254    -1.30800
H431        H  0.69320321  0.64925101  0.32555454     0.31800
O432        O  0.71499070  0.67105183  0.30366864    -1.32100
C433        C  0.62945759  0.71117662  0.54537737     0.79100
N434        N  0.57570581  0.71277745  0.54528452    -0.79200
C435        C  0.54850711  0.71392848  0.49889026     0.81600
N436        N  0.57607879  0.71477537  0.45287880    -0.79100
C437        C  0.62977202  0.71335470  0.45333445     0.81700
N438        N  0.65564861  0.71112844  0.49944418    -0.80800
C439        C  0.87848113  0.91010935  0.50168848     0.79100
N440        N  0.86243036  0.88858217  0.54768064    -0.79200
C441        C  0.83147894  0.84561955  0.54734969     0.81600
N442        N  0.81723406  0.82394269  0.50073951    -0.79100
C443        C  0.83202373  0.84590923  0.45452167     0.81700
N444        N  0.86305617  0.88897909  0.45509339    -0.80800
C445        C  0.56737492  0.57920911  0.73821840     0.79100
N446        N  0.56764202  0.52537857  0.74025846    -0.79200
C447        C  0.52133492  0.49796337  0.74071444     0.81600
N448        N  0.47516724  0.52536738  0.74054181    -0.79100
C449        C  0.47520938  0.57895111  0.73865925     0.81700
N450        N  0.52114182  0.60508315  0.73705716    -0.80800
C451        C  0.51603411  0.88188421  0.82227349     0.79100
N452        N  0.47122627  0.85517794  0.83262817    -0.79200
C453        C  0.47221800  0.80527008  0.85103295     0.81600
N454        N  0.51975191  0.78109784  0.85760955    -0.79100
C455        C  0.56540164  0.80848914  0.85145752     0.81700
N456        N  0.56270377  0.85831386  0.83304052    -0.80800
C457        C  0.76144324  0.42591740  0.61146482     0.79100
N458        N  0.75976440  0.47180724  0.63796408    -0.79200
C459        C  0.76056019  0.51813512  0.61236878     0.81600
N460        N  0.76239555  0.51883689  0.55873025    -0.79100
C461        C  0.76314249  0.47300989  0.53083719     0.81700
N462        N  0.76320457  0.42640032  0.55769940    -0.80800
C463        C  0.95920026  0.46953328  0.85512590     0.79100
N464        N  0.93764677  0.42362011  0.83896160    -0.79200
C465        C  0.89349339  0.42401099  0.80958679     0.81600
N466        N  0.87059002  0.47063333  0.79714414    -0.79100
C467        C  0.89260361  0.51679552  0.81215425     0.81700
N468        N  0.93691094  0.51610987  0.84146803    -0.80800
O469        O  0.82739753  0.74021675  0.90798223    -0.87600
O470        O  0.88031428  0.67386393  0.62729670    -0.87700
O471        O  0.89153755  0.60948676  0.79714447    -0.89400
O472        O  0.92905152  0.77861085  0.76883812    -0.88200
O473        O  0.88382024  0.85270884  0.74429837    -0.87800
O474        O  0.81496526  0.56202643  0.79527956    -0.89100
O475        O  0.92886765  0.68058497  0.70303224    -0.87600
O476        O  0.90088410  0.71314083  0.86300573    -0.87200
Zr477      Zr  0.87058192  0.70171998  0.77451335     2.84300
O478        O  0.84252351  0.75009962  0.70189639    -1.09200
O479        O  0.79775705  0.67472351  0.82405349    -1.09900
C480        C  0.87689803  0.72771926  0.90489377     1.05500
C481        C  0.92398312  0.67189957  0.65350868     1.05500
C482        C  0.86494807  0.56625956  0.80103446     1.08500
C483        C  0.92590107  0.82831604  0.75793005     1.06200
H484        H  0.83693004  0.61903580  0.70975205     0.31800
O485        O  0.81701093  0.64887490  0.72208910    -1.30100
H486        H  0.84547846  0.79656171  0.82593355     0.31500
O487        O  0.82343809  0.77496824  0.80401432    -1.31800
O488        O  0.71051331  0.70224596  0.59089589    -0.87600
O489        O  0.65609365  0.78064551  0.86355138    -0.89100
O490        O  0.75060019  0.56346547  0.69333420    -0.87600
O491        O  0.81651657  0.84456870  0.64002110    -0.87700
O492        O  0.79072975  0.88107236  0.81030824    -0.87400
O493        O  0.71236673  0.60766625  0.86471320    -0.87200
O494        O  0.61259539  0.66057300  0.72862824    -0.87600
O495        O  0.65480717  0.83311974  0.69259757    -0.87000
O496        O  0.65776366  0.58760885  0.75649045    -0.88100
O497        O  0.72409945  0.88260652  0.72169109    -0.87300
O498        O  0.77588958  0.60862837  0.61949611    -0.87700
O499        O  0.72495090  0.68408022  0.91123931    -0.87400
O500        O  0.76330847  0.83635879  0.88326713    -0.87000
O501        O  0.81067396  0.76869763  0.59125113    -0.87400
O502        O  0.63646591  0.72626176  0.63619307    -0.87700
O503        O  0.60812173  0.76358469  0.78890645    -0.89100
Zr504      Zr  0.78867722  0.69734277  0.64899035     2.83100
Zr505      Zr  0.74919022  0.74891990  0.85044767     2.83500
Zr506      Zr  0.74466768  0.62084772  0.77195955     2.84100
Zr507      Zr  0.79493984  0.82288575  0.73219061     2.83400
Zr508      Zr  0.66884998  0.74047600  0.72348799     2.84200
O509        O  0.72023965  0.79519516  0.77719826    -1.09700
O510        O  0.71705659  0.66750397  0.69743101    -1.09200
C511        C  0.66057644  0.71274717  0.59410594     1.05500
C512        C  0.61288945  0.78044348  0.83577751     1.08100
C513        C  0.76198210  0.56667831  0.64362906     1.05700
C514        C  0.81874303  0.81828022  0.59631377     1.06000
C515        C  0.77871320  0.87811435  0.85984900     1.05600
C516        C  0.70992260  0.63658709  0.90711396     1.05200
C517        C  0.61589308  0.61091879  0.74068613     1.05600
C518        C  0.68035182  0.87710898  0.69800065     1.05100
H519        H  0.66572765  0.68347924  0.81791509     0.31800
O520        O  0.69617236  0.69454357  0.79832798    -1.30800
H521        H  0.72973623  0.79056033  0.64715402     0.31800
O522        O  0.74169011  0.77076745  0.67715336    -1.32100
C523        C  0.47049717  0.36181720  0.26320451     0.79100
N524        N  0.46999025  0.41567895  0.26094627    -0.79200
C525        C  0.51618522  0.44333426  0.26040693     0.81600
N526        N  0.56246862  0.41615400  0.26081889    -0.79100
C527        C  0.56265313  0.36260471  0.26308650     0.81700
N528        N  0.51684590  0.33623103  0.26467586    -0.80800
C529        C  0.52146702  0.05652143  0.17910737     0.79100
N530        N  0.56630876  0.08333167  0.16914280    -0.79200
C531        C  0.56538202  0.13338592  0.15122318     0.81600
N532        N  0.51790551  0.15767566  0.14484647    -0.79100
C533        C  0.47217950  0.13048318  0.15095812     0.81700
N534        N  0.47474255  0.08038538  0.16888414    -0.80800
O535        O  0.82588236  0.20408668  0.09399775    -0.87600
O536        O  0.87874206  0.27008231  0.37311144    -0.87700
O537        O  0.88125410  0.33602524  0.19456421    -0.89400
O538        O  0.92514029  0.16468444  0.23400481    -0.88200
O539        O  0.87986390  0.09092054  0.25897682    -0.87800
O540        O  0.80834667  0.38536766  0.21490263    -0.89100
O541        O  0.92680454  0.26610551  0.29680753    -0.87600
O542        O  0.89968678  0.22923524  0.13932988    -0.87200
Zr543      Zr  0.86781602  0.24374817  0.22710034     2.84300
O544        O  0.83936359  0.19612079  0.30032457    -1.09200
O545        O  0.79406568  0.27130856  0.17986712    -1.09900
C546        C  0.87581416  0.21507351  0.09722409     1.05500
C547        C  0.92219343  0.27291800  0.34656161     1.05500
C548        C  0.85434529  0.37975863  0.19589753     1.08500
C549        C  0.92189996  0.11486665  0.24508511     1.06200
H550        H  0.83543622  0.32690291  0.29312501     0.31800
O551        O  0.81543307  0.29713732  0.28102286    -1.30100
H552        H  0.84143430  0.14863431  0.17819129     0.31500
O553        O  0.81950700  0.17057721  0.20000953    -1.31800
O554        O  0.70849162  0.24367041  0.41115602    -0.87600
O555        O  0.65480200  0.16359473  0.13877595    -0.89100
O556        O  0.74701977  0.38246826  0.31081018    -0.87600
O557        O  0.82528156  0.10840083  0.36510100    -0.87700
O558        O  0.78560736  0.06525960  0.19386455    -0.87400
O559        O  0.72255738  0.34461374  0.14045714    -0.87200
O560        O  0.60843329  0.28263522  0.27324504    -0.87600
O561        O  0.64486626  0.11316484  0.30023468    -0.87000
O562        O  0.65305219  0.35556474  0.24573901    -0.88100
O563        O  0.72100006  0.06459779  0.29593480    -0.87300
O564        O  0.77395543  0.33745895  0.38398440    -0.87700
O565        O  0.72545004  0.26822456  0.09227879    -0.87400
O566        O  0.76145646  0.11056318  0.11964273    -0.87000
O567        O  0.80753067  0.18235435  0.41389357    -0.87400
O568        O  0.63514438  0.21766893  0.36595746    -0.87700
O569        O  0.60538545  0.18461852  0.21131270    -0.89100
Zr570      Zr  0.78583646  0.24912121  0.35323049     2.83100
Zr571      Zr  0.74653535  0.19809525  0.15141025     2.83500
Zr572      Zr  0.74135557  0.32427120  0.23370137     2.84100
Zr573      Zr  0.79193246  0.12240521  0.27316287     2.83400
Zr574      Zr  0.66630485  0.20526506  0.27804072     2.84200
O575        O  0.71889858  0.15115124  0.22525979    -1.09700
O576        O  0.71270411  0.27817925  0.30687769    -1.09200
C577        C  0.65904194  0.23190491  0.40791138     1.05500
C578        C  0.61123624  0.16453256  0.16580262     1.08100
C579        C  0.75936473  0.37937358  0.36013280     1.05700
C580        C  0.82544451  0.13581996  0.40845855     1.06000
C581        C  0.77516310  0.06853161  0.14382906     1.05600
C582        C  0.71983890  0.31816439  0.09687166     1.05200
C583        C  0.61137085  0.33192003  0.26100984     1.05600
C584        C  0.67122457  0.06952856  0.30314908     1.05100
H585        H  0.66308947  0.26433192  0.18367204     0.31800
O586        O  0.69296156  0.25225342  0.20370488    -1.30800
H587        H  0.72642295  0.15541976  0.35642450     0.31800
O588        O  0.73839427  0.17522600  0.32651122    -1.32100
C589        C  0.47458232  0.35777255  0.73860032     0.79100
N590        N  0.52067897  0.33169040  0.73795639    -0.79200
C591        C  0.56667863  0.35765227  0.73961782     0.81600
N592        N  0.56694068  0.41128732  0.74109981    -0.79100
C593        C  0.52087313  0.43886371  0.74084145     0.81700
N594        N  0.47450281  0.41160250  0.74024315    -0.80800
C595        C  0.52252634  0.11207795  0.93949084     0.79100
N596        N  0.47558140  0.12622034  0.91819602    -0.79200
C597        C  0.47432162  0.15640504  0.87450440     0.81600
N598        N  0.52018480  0.17156190  0.85201947    -0.79100
C599        C  0.56707040  0.15848971  0.87383628     0.81700
N600        N  0.56808984  0.12849696  0.91748196    -0.80800
C601        C  0.62900612  0.23069060  0.54848257     0.79100
N602        N  0.65465924  0.23339486  0.50237300    -0.79200
C603        C  0.62832167  0.23289484  0.45648879     0.81600
N604        N  0.57474980  0.23033790  0.45643129    -0.79100
C605        C  0.54763639  0.22866125  0.50263888     0.81700
N606        N  0.57526097  0.22823868  0.54882979    -0.80800
C607        C  0.93096703  0.14654993  0.50186667     0.79100
N608        N  0.90620452  0.13422804  0.54732348    -0.79200
C609        C  0.85609784  0.11652890  0.54796833     0.81600
N610        N  0.82991578  0.11206220  0.50130577    -0.79100
C611        C  0.85539143  0.11990965  0.45476920     0.81700
N612        N  0.90539529  0.13804117  0.45586747    -0.80800
O613        O  0.82791953  0.20242702  0.91076782    -0.87600
O614        O  0.88267018  0.27712650  0.63646859    -0.87700
O615        O  0.92910768  0.16005842  0.77187875    -0.89400
O616        O  0.89237460  0.33108088  0.79639327    -0.88200
O617        O  0.81668608  0.37999422  0.78925401    -0.87800
O618        O  0.88434163  0.08688694  0.74509074    -0.89100
O619        O  0.93204851  0.25581545  0.70907169    -0.87600
O620        O  0.90182913  0.22632768  0.86544001    -0.87200
Zr621      Zr  0.87139752  0.23834533  0.77674657     2.84300
O622        O  0.81921136  0.29289933  0.72348418    -1.09200
O623        O  0.82384102  0.16660920  0.80532164    -1.09900
C624        C  0.87760912  0.21309795  0.90756862     1.05500
C625        C  0.92644411  0.27492956  0.66315261     1.05500
C626        C  0.92612120  0.11052167  0.76000406     1.08500
C627        C  0.86621527  0.37494015  0.79735310     1.06200
H628        H  0.87417126  0.18065642  0.68229080     0.31800
O629        O  0.84414899  0.19247719  0.70218231    -1.30100
H630        H  0.81156862  0.28977840  0.85363643     0.31500
O631        O  0.79914101  0.26952738  0.82412136    -1.31800
O632        O  0.71041771  0.23978603  0.59349189    -0.87600
O633        O  0.65909924  0.17486659  0.87283097    -0.89100
O634        O  0.82728251  0.10460578  0.63814507    -0.87600
O635        O  0.75211854  0.37993833  0.69212877    -0.87700
O636        O  0.72175059  0.34404351  0.86159018    -0.87400
O637        O  0.79226831  0.06372754  0.81040504    -0.87200
O638        O  0.65633238  0.10638871  0.69329778    -0.87600
O639        O  0.61211397  0.27682968  0.73164012    -0.87000
O640        O  0.73192664  0.05911268  0.70819614    -0.88100
O641        O  0.65697606  0.35104356  0.75637552    -0.87300
O642        O  0.81058556  0.17921736  0.59005739    -0.87700
O643        O  0.76485426  0.10911448  0.88348914    -0.87400
O644        O  0.72849321  0.26849181  0.91028577    -0.87000
O645        O  0.77677910  0.33458099  0.61826217    -0.87400
O646        O  0.63725629  0.21294883  0.63865224    -0.87700
O647        O  0.61122376  0.17709787  0.79632240    -0.89100
Zr648      Zr  0.78987782  0.24644333  0.65027105     2.83100
Zr649      Zr  0.75098356  0.19699050  0.85223550     2.83500
Zr650      Zr  0.79723248  0.11986564  0.73128924     2.84100
Zr651      Zr  0.74566718  0.32166777  0.76990811     2.83400
Zr652      Zr  0.66994967  0.19877431  0.72586821     2.84200
O653        O  0.69756845  0.24867970  0.79828257    -1.09700
O654        O  0.74350541  0.17198244  0.67773682    -1.09200
C655        C  0.66075594  0.22797130  0.59678401     1.05500
C656        C  0.61581300  0.17116724  0.84623292     1.08100
C657        C  0.82707502  0.13214880  0.59488654     1.05700
C658        C  0.76322542  0.37684787  0.64235050     1.06000
C659        C  0.71981614  0.31804596  0.90537881     1.05600
C660        C  0.78021285  0.06722076  0.85989685     1.05200
C661        C  0.68475854  0.06362590  0.69210246     1.05600
C662        C  0.61518479  0.32664524  0.74242072     1.05100
H663        H  0.70368258  0.11681067  0.79176155     0.31800
O664        O  0.72329409  0.14685055  0.77975685    -1.30800
H665        H  0.69484606  0.29477590  0.67614449     0.31800
O666        O  0.71676766  0.27289390  0.69801854    -1.32100
O667        O  0.20999393  0.19742503  0.09405961    -0.87600
O668        O  0.15687332  0.27005217  0.37331446    -0.87700
O669        O  0.10829392  0.16272620  0.23217116    -0.89400
O670        O  0.14699466  0.33153588  0.20350623    -0.88200
O671        O  0.22334543  0.37927406  0.20665642    -0.87800
O672        O  0.15340711  0.08857840  0.25657280    -0.89100
O673        O  0.10888928  0.26391042  0.29714302    -0.87600
O674        O  0.13657955  0.22565770  0.13840406    -0.87200
Zr675      Zr  0.16706906  0.23947204  0.22646972     2.84300
O676        O  0.22085790  0.29219590  0.27862463    -1.09200
O677        O  0.21414754  0.16619742  0.19705424    -1.09900
C678        C  0.16046706  0.20986335  0.09690546     1.05500
C679        C  0.11348273  0.27285430  0.34668502     1.05500
C680        C  0.11137482  0.11301234  0.24310415     1.08500
C681        C  0.17350133  0.37481467  0.20017279     1.06200
H682        H  0.16438713  0.17929469  0.31945981     0.31800
O683        O  0.19423286  0.19128613  0.29958982    -1.30100
H684        H  0.22848535  0.28597802  0.14674730     0.31500
O685        O  0.24016978  0.26647734  0.17710644    -1.31800
O686        O  0.32623954  0.23846397  0.41077393    -0.87600
O687        O  0.38203782  0.16019163  0.13801534    -0.89100
O688        O  0.21886697  0.09703761  0.36112540    -0.87600
O689        O  0.28523376  0.37793930  0.30736603    -0.87700
O690        O  0.32612789  0.33284186  0.13651904    -0.87400
O691        O  0.24695592  0.06084900  0.19106178    -0.87200
O692        O  0.38134466  0.10785542  0.31169021    -0.87600
O693        O  0.42537619  0.27993982  0.27201341    -0.87000
O694        O  0.30924194  0.05830536  0.28970595    -0.88100
O695        O  0.38014718  0.35332823  0.24524396    -0.87300
O696        O  0.22615096  0.17252665  0.41008811    -0.87700
O697        O  0.27469175  0.10515438  0.11801697    -0.87400
O698        O  0.31321136  0.25655353  0.08995734    -0.87000
O699        O  0.26025211  0.33288365  0.38141408    -0.87400
O700        O  0.40051374  0.21460676  0.36567956    -0.87700
O701        O  0.42913866  0.17517529  0.21367203    -0.89100
Zr702      Zr  0.24816057  0.24409256  0.35238162     2.83100
Zr703      Zr  0.28883849  0.19207779  0.15113401     2.83500
Zr704      Zr  0.24180337  0.11864797  0.26939411     2.84100
Zr705      Zr  0.29341391  0.32006030  0.22930115     2.83400
Zr706      Zr  0.36837297  0.20012204  0.27848518     2.84200
O707        O  0.34200456  0.24624867  0.20326753    -1.09700
O708        O  0.29493604  0.17048238  0.32446054    -1.09200
C709        C  0.37625734  0.22813853  0.40765613     1.05500
C710        C  0.42479296  0.15900712  0.16649773     1.08100
C711        C  0.21720366  0.12308031  0.40493690     1.05700
C712        C  0.27383632  0.37478801  0.35708168     1.06000
C713        C  0.32822207  0.30405447  0.09398170     1.05600
C714        C  0.25915310  0.06360392  0.14155913     1.05200
C715        C  0.35483381  0.06407258  0.30958740     1.05600
C716        C  0.42209934  0.32981655  0.26047833     1.05100
H717        H  0.33679286  0.11514770  0.21350552     0.31800
O718        O  0.31691514  0.14549030  0.22457482    -1.30800
H719        H  0.34177103  0.29531851  0.32610997     0.31800
O720        O  0.32022468  0.27328102  0.30411095    -1.32100
C721        C  0.55291631  0.96411431  0.11453133     0.19300
C722        C  0.58199892  0.98384990  0.07209362    -0.40600
C723        C  0.55345371  0.01477917  0.03710731     0.18200
C724        C  0.49941465  0.01593257  0.03689827     0.20900
C725        C  0.46982094  0.98551019  0.07106576    -0.41100
C726        C  0.49760025  0.96243324  0.11273292     0.19700
N727        N  0.56842112  0.97735157  0.16314701    -0.34400
C728        C  0.52419772  0.99804404  0.18396917    -0.12000
C729        C  0.48084192  0.97291594  0.16282674    -0.30800
N730        N  0.48121439  0.05134148  0.00261572    -0.47400
C731        C  0.52441710  0.07322374  0.98125214    -0.06600
C732        C  0.57032171  0.05168599  0.00184574    -0.24000
H733        H  0.62422405  0.98817747  0.07459862     0.17800
H734        H  0.42751323  0.98993437  0.07228662     0.16600
H735        H  0.44084982  0.98529603  0.17095342     0.12900
H736        H  0.61047252  0.06166672  0.99233497     0.12700
H737        H  0.60581636  0.99290114  0.16992304     0.30900
H738        H  0.44195889  0.06015492  0.99448318     0.33700
C739        C  0.97451361  0.00711514  0.47613059     0.19300
C740        C  0.00389279  0.04168531  0.44592856    -0.40600
C741        C  0.02662264  0.08372021  0.47339746     0.18200
C742        C  0.02673155  0.08486068  0.52881463     0.20900
C743        C  0.00884091  0.04170156  0.55795236    -0.41100
C744        C  0.97726745  0.00686035  0.53009375     0.19700
N745        N  0.93843823  0.97313057  0.45882971    -0.34400
C746        C  0.91784423  0.95144309  0.50256562    -0.12000
C747        C  0.94088009  0.97154104  0.54786873    -0.30800
N748        N  0.01238269  0.13282811  0.54543577    -0.47400
C749        C  0.98928170  0.15330490  0.50234295    -0.06600
C750        C  0.01353546  0.13359240  0.45776680    -0.24000
H751        H  0.99813380  0.04327087  0.40380700     0.17800
H752        H  0.00588422  0.04360632  0.60033636     0.16600
H753        H  0.93204602  0.96183129  0.58825257     0.12900
H754        H  0.99934023  0.14175163  0.41842197     0.12700
H755        H  0.92827239  0.96549789  0.41982792     0.30900
H756        H  0.99788402  0.13864877  0.58346224     0.33700
C757        C  0.53949582  0.92270031  0.96249261     0.19300
C758        C  0.56902462  0.95313314  0.92822711    -0.40600
C759        C  0.54103353  0.97644029  0.88675045     0.18200
C760        C  0.48565314  0.97509695  0.88542483     0.20900
C761        C  0.45687324  0.95559773  0.92811776    -0.41100
C762        C  0.48547111  0.92418644  0.96257181     0.19700
N763        N  0.55762403  0.88719419  0.99676717    -0.34400
C764        C  0.51430641  0.86568509  0.01835891    -0.12000
C765        C  0.46850795  0.88743444  0.99785285    -0.30800
N766        N  0.46961417  0.96151541  0.83707392    -0.47400
C767        C  0.51349843  0.94026205  0.81619571    -0.06600
C768        C  0.55717130  0.96554803  0.83652511    -0.24000
H769        H  0.61130018  0.94848473  0.92668980     0.17800
H770        H  0.41458467  0.95167699  0.92606326     0.16600
H771        H  0.42832070  0.87793173  0.00769439     0.12900
H772        H  0.59702210  0.95293949  0.82804107     0.12700
H773        H  0.59684799  0.87823217  0.00489051     0.30900
H774        H  0.43209543  0.94604128  0.83081217     0.33700
C775        C  0.13338038  0.44288090  0.00543543     0.19300
C776        C  0.09177127  0.41319614  0.98475137    -0.40600
C777        C  0.05704047  0.44095484  0.95284138     0.18200
C778        C  0.05604828  0.49494753  0.95137632     0.20900
C779        C  0.08926973  0.52530074  0.98223283    -0.41100
C780        C  0.13121140  0.49825095  0.00576081     0.19700
N781        N  0.18236111  0.42709231  0.99392098    -0.34400
C782        C  0.20271588  0.47039404  0.97134136    -0.12000
C783        C  0.18121457  0.51473157  0.99463366    -0.30800
N784        N  0.02186021  0.51227736  0.91543340    -0.47400
C785        C  0.00120535  0.46854210  0.89375752    -0.06600
C786        C  0.02224802  0.42318077  0.91581720    -0.24000
H787        H  0.09463801  0.37090885  0.98114813     0.17800
H788        H  0.09004728  0.56753631  0.97737942     0.16600
H789        H  0.18910361  0.55415362  0.98069324     0.12900
H790        H  0.01312269  0.38280469  0.90630211     0.12700
H791        H  0.18962300  0.38908203  0.97995049     0.30900
H792        H  0.01312335  0.55131765  0.90635541     0.33700
C793        C  0.06728635  0.92956583  0.52820636     0.19300
C794        C  0.03823431  0.89582802  0.55969714    -0.40600
C795        C  0.01377053  0.85394830  0.53351116     0.18200
C796        C  0.01215333  0.85192591  0.47816090     0.20900
C797        C  0.03081016  0.89396438  0.44780852    -0.41100
C798        C  0.06352238  0.92885304  0.47432182     0.19700
N799        N  0.10315812  0.96436590  0.54417487    -0.34400
C800        C  0.12252773  0.98583863  0.49974265    -0.12000
C801        C  0.09913532  0.96441864  0.45520757    -0.30800
N802        N  0.02410655  0.80314171  0.46199002    -0.47400
C803        C  0.04817149  0.78286927  0.50465884    -0.06600
C804        C  0.02562011  0.80388149  0.54960192    -0.24000
H805        H  0.04481290  0.89493359  0.60172104     0.17800
H806        H  0.03258854  0.89132235  0.40540367     0.16600
H807        H  0.10662734  0.97402015  0.41452930     0.12900
H808        H  0.04060739  0.79586374  0.58868920     0.12700
H809        H  0.11355305  0.97310083  0.58288523     0.30900
H810        H  0.03715309  0.79616939  0.42363275     0.33700
C811        C  0.90406161  0.43886783  0.99451133     0.19300
C812        C  0.94671739  0.40961331  0.01389423    -0.40600
C813        C  0.98203747  0.43809195  0.04436489     0.18200
C814        C  0.98273433  0.49210943  0.04470359     0.20900
C815        C  0.94876025  0.52169375  0.01376624    -0.41100
C816        C  0.90613344  0.49419217  0.99231697     0.19700
N817        N  0.85581385  0.42388023  0.00923488    -0.34400
C818        C  0.83602616  0.46828112  0.03052131    -0.12000
C819        C  0.85661291  0.51144774  0.00481845    -0.30800
N820        N  0.01700240  0.51029340  0.08013955    -0.47400
C821        C  0.03796076  0.46707027  0.10269059    -0.06600
C822        C  0.01708910  0.42121556  0.08160842    -0.24000
H823        H  0.94410841  0.36745675  0.01868020     0.17800
H824        H  0.94795196  0.56405352  0.01760765     0.16600
H825        H  0.84923268  0.55146120  0.01757119     0.12900
H826        H  0.02620205  0.38106785  0.09218069     0.12700
H827        H  0.84933344  0.38658316  0.02512541     0.30900
H828        H  0.02538356  0.54952741  0.08853939     0.33700
C829        C  0.04508190  0.51685153  0.46227090     0.19300
C830        C  0.07583167  0.48727223  0.42805148    -0.40600
C831        C  0.04910112  0.46523169  0.38515009     0.18200
C832        C  0.99371368  0.46528485  0.38298911     0.20900
C833        C  0.96376885  0.48404408  0.42540500    -0.41100
C834        C  0.99110099  0.51507430  0.46115097     0.19700
N835        N  0.06190639  0.55219379  0.49730066    -0.34400
C836        C  0.01787220  0.57321904  0.51835003    -0.12000
C837        C  0.97282464  0.55126787  0.49673030    -0.30800
N838        N  0.97788489  0.47883686  0.33459481    -0.47400
C839        C  0.02103867  0.50237110  0.31510239    -0.06600
C840        C  0.06556167  0.47853989  0.33564105    -0.24000
H841        H  0.11802744  0.49252910  0.42741909     0.17800
H842        H  0.92145406  0.48745937  0.42263341     0.16600
H843        H  0.93231975  0.56050455  0.50578110     0.12900
H844        H  0.10489398  0.49303342  0.32830069     0.12700
H845        H  0.10083883  0.56151693  0.50611996     0.30900
H846        H  0.93979558  0.49294713  0.32798316     0.33700
C847        C  0.04107457  0.42604109  0.53838534     0.19300
C848        C  0.07075458  0.45592352  0.57313106    -0.40600
C849        C  0.04320359  0.47683015  0.61613279     0.18200
C850        C  0.98784688  0.47526635  0.61807178     0.20900
C851        C  0.95861768  0.45664412  0.57515816    -0.41100
C852        C  0.98704093  0.42668450  0.53921928     0.19700
N853        N  0.05911823  0.39140624  0.50308435    -0.34400
C854        C  0.01577520  0.36964448  0.48166830    -0.12000
C855        C  0.97001990  0.39039096  0.50332236    -0.30800
N856        N  0.97242429  0.46041022  0.66616329    -0.47400
C857        C  0.01645453  0.43815857  0.68568630    -0.06600
C858        C  0.06006989  0.46347409  0.66552380    -0.24000
H859        H  0.11309318  0.45169271  0.57392187     0.17800
H860        H  0.91641758  0.45212566  0.57768068     0.16600
H861        H  0.92981544  0.38028054  0.49408419     0.12900
H862        H  0.09990010  0.45007324  0.67281980     0.12700
H863        H  0.09832127  0.38296907  0.49437120     0.30900
H864        H  0.93487851  0.44503449  0.67242800     0.33700
C865        C  0.55958051  0.98834812  0.54734212     0.19300
C866        C  0.59391413  0.01758179  0.51668780    -0.40600
C867        C  0.63637510  0.98966918  0.49503562     0.18200
C868        C  0.63854272  0.93437432  0.49754418     0.20900
C869        C  0.59608296  0.90545665  0.51738367    -0.41100
C870        C  0.56045246  0.93432251  0.54734764     0.19700
N871        N  0.52406027  0.00688413  0.58149771    -0.34400
C872        C  0.50241383  0.96387667  0.60354519    -0.12000
C873        C  0.52436522  0.91783530  0.58361404    -0.30800
N874        N  0.68706953  0.91919531  0.51167128    -0.47400
C875        C  0.70687841  0.96361542  0.53267758    -0.06600
C876        C  0.68613160  0.00667580  0.50657739    -0.24000
H877        H  0.59463367  0.05996301  0.52018436     0.17800
H878        H  0.59874824  0.86330997  0.52238109     0.16600
H879        H  0.51483400  0.87777187  0.59386377     0.12900
H880        H  0.69371872  0.04677457  0.51877180     0.12700
H881        H  0.51503355  0.04619114  0.58911151     0.30900
H882        H  0.69383107  0.88194655  0.52768351     0.33700
C883        C  0.48176382  0.99870673  0.45798624     0.19300
C884        C  0.44698014  0.02861839  0.48782406    -0.42200
C885        C  0.40473636  0.00095120  0.50981321     0.18200
C886        C  0.40367998  0.94556808  0.50934377     0.20900
C887        C  0.44651302  0.91650503  0.49018144    -0.41100
C888        C  0.48163758  0.94470734  0.45942826     0.19700
N889        N  0.51627037  0.01631021  0.42251651    -0.34400
C890        C  0.53789654  0.97268215  0.40114178    -0.12000
C891        C  0.51725396  0.92724172  0.42303160    -0.30800
N892        N  0.35549904  0.92901038  0.49610234    -0.47400
C893        C  0.33473155  0.97204092  0.47320252    -0.06600
C894        C  0.35473942  0.01669851  0.49708066    -0.24000
H895        H  0.44540662  0.07082744  0.48285221     0.17800
H896        H  0.44454354  0.87419955  0.48639336     0.16600
H897        H  0.52679697  0.88692149  0.41343807     0.12900
H898        H  0.34640560  0.05602952  0.48296736     0.12700
H899        H  0.52427472  0.05539286  0.41323491     0.30900
H900        H  0.34954372  0.89095890  0.48175110     0.33700
C901        C  0.56477414  0.50787619  0.97830598     0.19300
C902        C  0.53372046  0.54172503  0.94868919    -0.40600
C903        C  0.51133952  0.58396150  0.97630426     0.18200
C904        C  0.51308709  0.58603445  0.03163581     0.20900
C905        C  0.53348741  0.54386446  0.06083939    -0.41100
C906        C  0.56432600  0.50868676  0.03233757     0.19700
N907        N  0.60035486  0.47356107  0.96015660    -0.34400
C908        C  0.62292978  0.45272820  0.00341147    -0.12000
C909        C  0.60167544  0.47371066  0.04924482    -0.30800
N910        N  0.52594674  0.63472229  0.04707710    -0.47400
C911        C  0.54724453  0.65501270  0.00305371    -0.06600
C912        C  0.52254362  0.63380368  0.95945016    -0.24000
H913        H  0.53774296  0.54262841  0.90636032     0.17800
H914        H  0.53814272  0.54661183  0.10303244     0.16600
H915        H  0.61217191  0.46466862  0.08942047     0.12900
H916        H  0.53543701  0.64153733  0.91962155     0.12700
H917        H  0.60884192  0.46507988  0.92093094     0.30900
H918        H  0.54114791  0.64166379  0.08464845     0.33700
C919        C  0.47231010  0.43357231  0.97492736     0.19300
C920        C  0.50248295  0.39989782  0.94415787    -0.40600
C921        C  0.52534154  0.35735288  0.97078450     0.18200
C922        C  0.52524745  0.35502928  0.02613158     0.20900
C923        C  0.50569633  0.39704015  0.05622483    -0.41100
C924        C  0.47411273  0.43241575  0.02890926     0.19700
N925        N  0.43635983  0.46803725  0.95807142    -0.34400
C926        C  0.41496108  0.48868943  0.00207537    -0.12000
C927        C  0.43729431  0.46740881  0.04715173    -0.30800
N928        N  0.51276872  0.30632161  0.04160244    -0.47400
C929        C  0.48994555  0.28631116  0.99815461    -0.06600
C930        C  0.51325661  0.30764548  0.95391749    -0.24000
H931        H  0.49725763  0.39927987  0.90193885     0.17800
H932        H  0.50226619  0.39407435  0.09849839     0.16600
H933        H  0.42788217  0.47628256  0.08763667     0.12900
H934        H  0.49902956  0.30014409  0.91444831     0.12700
H935        H  0.42691443  0.47676735  0.91912636     0.30900
H936        H  0.49874952  0.29928011  0.07956190     0.33700
loop_ 
_geom_bond_atom_site_label_1 
_geom_bond_atom_site_label_2 
_geom_bond_distance 
_geom_bond_site_symmetry_2 
_ccdc_geom_bond_type 
C1            N2   1.349       .  A
C1            N6   1.372       .  A
C1          C312   1.480       .  S
N2            C3   1.350   1_556  A
C3            N4   1.366       .  A
C3          C168   1.468       .  S
N4            C5   1.366   1_554  A
C5            N6   1.372       .  A
C5           C53   1.504   1_455  S
C7            N8   1.360       .  A
C7           N12   1.358   1_554  A
C7          C926   1.455       .  S
N8            C9   1.353       .  A
C9           N10   1.359   1_554  A
C9          C204   1.471       .  S
N10          C11   1.360       .  A
C11          N12   1.351       .  A
C11         C347   1.467       .  S
C13          N14   1.373       .  A
C13          N18   1.348       .  A
C13         C546   1.481       .  S
N14          C15   1.373       .  A
C15          N16   1.367   1_554  A
C15          C65   1.507   1_655  S
N16          C17   1.367       .  A
C17          N18   1.350   1_556  A
C17         C624   1.469       .  S
C19          N20   1.362   1_554  A
C19          N24   1.357       .  A
C19         C908   1.456       .  S
N20          C21   1.356       .  A
C21          N22   1.360   1_556  A
C21         C659   1.474       .  S
N22          C23   1.359       .  A
C23          N24   1.349       .  A
C23         C582   1.467       .  S
C25          N26   1.367       .  A
C25          N30   1.348       .  A
C25         C390   1.466       .  S
N26          C27   1.366       .  A
C27          N28   1.371   1_565  A
C27          C77   1.503   1_554  S
N28          C29   1.371       .  A
C29          N30   1.347   1_545  A
C29         C581   1.474       .  S
C31          N32   1.361   1_565  A
C31          N36   1.359       .  A
C31         C890   1.458       .  S
N32          C33   1.355       .  A
C33          N34   1.359   1_545  A
C33         C584   1.471       .  S
N34          C35   1.358       .  A
C35          N36   1.352       .  A
C35         C425   1.469       .  S
C37          N38   1.368       .  A
C37          N42   1.348   1_545  A
C37         C234   1.469       .  S
N38          C39   1.367   1_545  A
C39          N40   1.371       .  A
C39          C87   1.506   1_556  S
N40          C41   1.371       .  A
C41          N42   1.348       .  A
C41         C348   1.476       .  S
C43          N44   1.358       .  A
C43          N48   1.363   1_565  A
C43         C872   1.459       .  S
N44          C45   1.350       .  A
C45          N46   1.357       .  A
C45         C349   1.466       .  S
N46          C47   1.359   1_565  A
C47          N48   1.357       .  A
C47         C270   1.474       .  S
C49          N50   1.348   1_554  A
C49          N54   1.370       .  A
C49         C392   1.475       .  S
N50          C51   1.348       .  A
C51          N52   1.368       .  A
C51         C480   1.468       .  S
N52          C53   1.367       .  A
C53          N54   1.371   1_556  A
C55          N56   1.356       .  A
C55          N60   1.359   1_554  A
C55         C911   1.496       .  S
N56          C57   1.353       .  A
C57          N58   1.367       .  A
C57         C391   1.459       .  S
N58          C59   1.367   1_554  A
C59          N60   1.358       .  A
C59         C516   1.462       .  S
C61          N62   1.348   1_556  A
C61          N66   1.371       .  A
C61         C237   1.477       .  S
N62          C63   1.349       .  A
C63          N64   1.368       .  A
C63         C678   1.469       .  S
N64          C65   1.367       .  A
C65          N66   1.372   1_554  A
C67          N68   1.358       .  A
C67          N72   1.358   1_556  A
C67         C929   1.496       .  S
N68          C69   1.357       .  A
C69          N70   1.369   1_556  A
C69         C235   1.462       .  S
N70          C71   1.367       .  A
C71          N72   1.356       .  A
C71         C713   1.464       .  S
C73          N74   1.348       .  A
C73          N78   1.370       .  A
C73         C515   1.475       .  S
N74          C75   1.348   1_565  A
C75          N76   1.367       .  A
C75         C660   1.468       .  S
N76          C77   1.367   1_545  A
C77          N78   1.371       .  A
C79          N80   1.356       .  A
C79          N84   1.358   1_565  A
C79         C875   1.497       .  S
N80          C81   1.354       .  A
C81          N82   1.366       .  A
C81         C518   1.459       .  S
N82          C83   1.367   1_565  A
C83          N84   1.357       .  A
C83         C661   1.459       .  S
C85          N86   1.370       .  A
C85          N90   1.347   1_545  A
C85         C714   1.473       .  S
N86          C87   1.370   1_545  A
C87          N88   1.367       .  A
N88          C89   1.369       .  A
C89          N90   1.347       .  A
C89         C203   1.469       .  S
C91          N92   1.358       .  A
C91          N96   1.357   1_565  A
C91         C893   1.496       .  S
N92          C93   1.357       .  A
C93          N94   1.367       .  A
C93         C206   1.464       .  S
N94          C95   1.368   1_565  A
C95          N96   1.355       .  A
C95         C715   1.459       .  S
C97          N98   1.348   1_655  A
C97         N102   1.368       .  A
C97         C626   1.470       .  S
N98          C99   1.348       .  A
C99         N100   1.369       .  A
C99         C269   1.470       .  S
N100        C101   1.368   1_545  A
C101        N102   1.368   1_465  A
C101        C111   1.502       .  S
C103        N104   1.358       .  A
C103        N108   1.355   1_455  A
C103        C857   1.495       .  S
N104        C105   1.357       .  A
C105        N106   1.367       .  A
C105        C272   1.459       .  S
N106        C107   1.367   1_455  A
C107        N108   1.354       .  A
C107        C625   1.457       .  S
C109        N110   1.370       .  A
C109        N114   1.348       .  A
C109        C314   1.475       .  S
N110        C111   1.370       .  A
C111        N112   1.367   1_455  A
N112        C113   1.367       .  A
C113        N114   1.349   1_655  A
C113        C483   1.470       .  S
C115        N116   1.360   1_455  A
C115        N120   1.359       .  A
C115        C836   1.456       .  S
N116        C117   1.354       .  A
C117        N118   1.359   1_655  A
C117        C481   1.470       .  S
N118        C119   1.359       .  A
C119        N120   1.352       .  A
C119        C313   1.468       .  S
C121        N122   1.347       .  A
C121        N126   1.369       .  A
C121        C171   1.471       .  S
N122        C123   1.348   1_455  A
C123        N124   1.368       .  A
C123        C426   1.468       .  S
N124        C125   1.367   1_655  A
C125        N126   1.369       .  A
C125        C135   1.502   1_565  S
C127        N128   1.357   1_455  A
C127        N132   1.357       .  A
C127        C839   1.497       .  S
N128        C129   1.356       .  A
C129        N130   1.367   1_655  A
C129        C427   1.462       .  S
N130        C131   1.368       .  A
C131        N132   1.356       .  A
C131        C169   1.459       .  S
C133        N134   1.370       .  A
C133        N138   1.348   1_655  A
C133        C549   1.474       .  S
N134        C135   1.369   1_655  A
C135        N136   1.367       .  A
N136        C137   1.367       .  A
C137        N138   1.349       .  A
C137        C680   1.469       .  S
C139        N140   1.362       .  A
C139        N144   1.358   1_455  A
C139        C854   1.456       .  S
N140        C141   1.356       .  A
C141        N142   1.359       .  A
C141        C679   1.472       .  S
N142        C143   1.358   1_455  A
C143        N144   1.350       .  A
C143        C547   1.466       .  S
C145        N146   1.348       .  A
C145        N150   1.371       .  A
C145        C201   1.475       .  S
N146        C147   1.348       .  A
C147        N148   1.367       .  A
C147        C712   1.467       .  S
N148        C149   1.366       .  A
C149        N150   1.371       .  A
C149        C293   1.504       .  S
C151        N152   1.357       .  A
C151        N156   1.361       .  A
C151        C821   1.455       .  S
N152        C153   1.350       .  A
C153        N154   1.358       .  A
C153        C681   1.466       .  S
N154        C155   1.360       .  A
C155        N156   1.355       .  A
C155        C170   1.471       .  S
O157       Zr193   2.466       .  S
O157        C168   1.298       .  A
O158       Zr192   2.515       .  S
O158        C169   1.306       .  A
O159       Zr165   2.483       .  S
O159        C170   1.301       .  A
O160       Zr165   2.485       .  S
O160        C171   1.302       .  A
O161       Zr195   2.395       .  S
O161        C171   1.282       .  A
O162       Zr194   2.407       .  S
O162        C170   1.287       .  A
O163       Zr165   2.366       .  S
O163        C169   1.276       .  A
O164       Zr165   2.409       .  S
O164        C168   1.285       .  A
Zr165       O166   2.335       .  S
Zr165       O167   2.340       .  S
Zr165       O175   2.317       .  S
Zr165       O173   2.358       .  S
O166       Zr192   2.350       .  S
O166       Zr195   2.331       .  S
O167       Zr193   2.333       .  S
O167       Zr194   2.345       .  S
H172        O173   0.964       .  S
O173       Zr192   2.330       .  S
O173       Zr194   2.330       .  S
H174        O175   0.965       .  S
O175       Zr193   2.340       .  S
O175       Zr195   2.334       .  S
O176       Zr192   2.488       .  S
O176        C199   1.303       .  A
O177       Zr193   2.475       .  S
O177        C200   1.299       .  A
O178       Zr194   2.482       .  S
O178        C201   1.302       .  A
O179       Zr195   2.528       .  S
O179        C202   1.308       .  A
O180       Zr195   2.487       .  S
O180        C203   1.303       .  A
O181       Zr194   2.469       .  S
O181        C204   1.298       .  A
O182       Zr196   2.474       .  S
O182        C205   1.301       .  A
O183       Zr196   2.524       .  S
O183        C206   1.308       .  A
O184       Zr194   2.405       .  S
O184        C205   1.285       .  A
O185       Zr195   2.359       .  S
O185        C206   1.276       .  A
O186       Zr192   2.402       .  S
O186        C201   1.282       .  A
O187       Zr193   2.411       .  S
O187        C204   1.287       .  A
O188       Zr193   2.397       .  S
O188        C203   1.283       .  A
O189       Zr192   2.346       .  S
O189        C202   1.274       .  A
O190       Zr196   2.400       .  S
O190        C199   1.283       .  A
O191       Zr196   2.404       .  S
O191        C200   1.286       .  A
Zr192       O198   2.321       .  S
Zr192       O210   2.347       .  S
Zr193       O197   2.352       .  S
Zr193       O208   2.336       .  S
Zr194       O198   2.332       .  S
Zr194       O208   2.348       .  S
Zr195       O197   2.351       .  S
Zr195       O210   2.344       .  S
Zr196       O197   2.339       .  S
Zr196       O198   2.349       .  S
Zr196       O210   2.340       .  S
Zr196       O208   2.353       .  S
C199        C277   1.473       .  S
C200        C377   1.468       .  S
C202        C285   1.459       .  S
C205        C371   1.467       .  S
H207        O208   0.965       .  S
H209        O210   0.966       .  S
C211        N212   1.370       .  A
C211        N216   1.347       .  A
C211        C709   1.472       .  S
N212        C213   1.370       .  A
C213        N214   1.366       .  A
C213        C605   1.503       .  S
N214        C215   1.368       .  A
C215        N216   1.347       .  A
C215        C271   1.466       .  S
C217        N218   1.361       .  A
C217        N222   1.361       .  A
C217        C800   1.459   1_545  S
N218        C219   1.355       .  A
C219        N220   1.358       .  A
C219        C711   1.471       .  S
N220        C221   1.358       .  A
C221        N222   1.353       .  A
C221        C266   1.472       .  S
O223       Zr259   2.474       .  S
O223        C234   1.300       .  A
O224       Zr258   2.520       .  S
O224        C235   1.307       .  A
O225       Zr231   2.479       .  S
O225        C236   1.300       .  A
O226       Zr231   2.491       .  S
O226        C237   1.303       .  A
O227       Zr261   2.402       .  S
O227        C237   1.283       .  A
O228       Zr260   2.408       .  S
O228        C236   1.287       .  A
O229       Zr231   2.366       .  S
O229        C235   1.275       .  A
O230       Zr231   2.403       .  S
O230        C234   1.284       .  A
Zr231       O232   2.335       .  S
Zr231       O233   2.345       .  S
Zr231       O241   2.317       .  S
Zr231       O239   2.359       .  S
O232       Zr258   2.352       .  S
O232       Zr261   2.330       .  S
O233       Zr259   2.337       .  S
O233       Zr260   2.349       .  S
C236        C597   1.469       .  S
H238        O239   0.965       .  S
O239       Zr258   2.332       .  S
O239       Zr260   2.330       .  S
H240        O241   0.965       .  S
O241       Zr259   2.341       .  S
O241       Zr261   2.332       .  S
O242       Zr258   2.493       .  S
O242        C265   1.304       .  A
O243       Zr259   2.480       .  S
O243        C266   1.299       .  A
O244       Zr260   2.492       .  S
O244        C267   1.304       .  A
O245       Zr261   2.527       .  S
O245        C268   1.308       .  A
O246       Zr261   2.484       .  S
O246        C269   1.302       .  A
O247       Zr260   2.477       .  S
O247        C270   1.299       .  A
O248       Zr262   2.479       .  S
O248        C271   1.302       .  A
O249       Zr262   2.518       .  S
O249        C272   1.306       .  A
O250       Zr260   2.398       .  S
O250        C271   1.283       .  A
O251       Zr261   2.355       .  S
O251        C272   1.275       .  A
O252       Zr258   2.401       .  S
O252        C267   1.282       .  A
O253       Zr259   2.411       .  S
O253        C270   1.287       .  A
O254       Zr259   2.404       .  S
O254        C269   1.284       .  A
O255       Zr258   2.350       .  S
O255        C268   1.274       .  A
O256       Zr262   2.406       .  S
O256        C265   1.284       .  A
O257       Zr262   2.408       .  S
O257        C266   1.287       .  A
Zr258       O264   2.323       .  S
Zr258       O276   2.346       .  S
Zr259       O263   2.350       .  S
Zr259       O274   2.340       .  S
Zr260       O264   2.333       .  S
Zr260       O274   2.352       .  S
Zr261       O263   2.352       .  S
Zr261       O276   2.345       .  S
Zr262       O263   2.340       .  S
Zr262       O264   2.347       .  S
Zr262       O276   2.342       .  S
Zr262       O274   2.351       .  S
C265        C291   1.478       .  S
C267        C589   1.478       .  S
C268        C297   1.460       .  S
H273        O274   0.965       .  S
H275        O276   0.965       .  S
C277        N278   1.370       .  A
C277        N282   1.348       .  A
N278        C279   1.370       .  A
C279        N280   1.367       .  A
C279        C435   1.503       .  S
N280        C281   1.367       .  A
C281        N282   1.348       .  A
C281        C343   1.467       .  S
C283        N284   1.358       .  A
C283        N288   1.357       .  A
C283        C803   1.498       .  S
N284        C285   1.356       .  A
C285        N286   1.367       .  A
N286        C287   1.366       .  A
C287        N288   1.356       .  A
C287        C345   1.458       .  S
C289        N290   1.349       .  A
C289        N294   1.366       .  A
C289        C346   1.468       .  S
N290        C291   1.349       .  A
C291        N292   1.372       .  A
N292        C293   1.372       .  A
C293        N294   1.366       .  A
C295        N296   1.357       .  A
C295        N300   1.359       .  A
C295        C782   1.497       .  S
N296        C297   1.354       .  A
C297        N298   1.367       .  A
N298        C299   1.368       .  A
C299        N300   1.358       .  A
C299        C315   1.462       .  S
O301       Zr337   2.497       .  S
O301        C312   1.305       .  A
O302       Zr336   2.480       .  S
O302        C313   1.300       .  A
O303       Zr309   2.493       .  S
O303        C314   1.304       .  A
O304       Zr309   2.517       .  S
O304        C315   1.306       .  A
O305       Zr339   2.363       .  S
O305        C315   1.276       .  A
O306       Zr338   2.401       .  S
O306        C314   1.284       .  A
O307       Zr309   2.405       .  S
O307        C313   1.287       .  A
O308       Zr309   2.406       .  S
O308        C312   1.285       .  A
Zr309       O310   2.348       .  S
Zr309       O311   2.341       .  S
Zr309       O319   2.339       .  S
Zr309       O317   2.344       .  S
O310       Zr336   2.341       .  S
O310       Zr339   2.341       .  S
O311       Zr337   2.339       .  S
O311       Zr338   2.339       .  S
H316        O317   0.965       .  S
O317       Zr336   2.349       .  S
O317       Zr338   2.343       .  S
H318        O319   0.966       .  S
O319       Zr337   2.342       .  S
O319       Zr339   2.347       .  S
O320       Zr336   2.472       .  S
O320        C343   1.299       .  A
O321       Zr337   2.517       .  S
O321        C344   1.306       .  A
O322       Zr338   2.510       .  S
O322        C345   1.305       .  A
O323       Zr339   2.471       .  S
O323        C346   1.299       .  A
O324       Zr339   2.482       .  S
O324        C347   1.301       .  A
O325       Zr338   2.494       .  S
O325        C348   1.304       .  A
O326       Zr340   2.476       .  S
O326        C349   1.299       .  A
O327       Zr340   2.466       .  S
O327        C350   1.298       .  A
O328       Zr338   2.403       .  S
O328        C349   1.286       .  A
O329       Zr339   2.403       .  S
O329        C350   1.284       .  A
O330       Zr336   2.366       .  S
O330        C345   1.276       .  A
O331       Zr337   2.402       .  S
O331        C348   1.284       .  A
O332       Zr337   2.398       .  S
O332        C347   1.285       .  A
O333       Zr336   2.404       .  S
O333        C346   1.284       .  A
O334       Zr340   2.399       .  S
O334        C343   1.283       .  A
O335       Zr340   2.364       .  S
O335        C344   1.276       .  A
Zr336       O342   2.338       .  S
Zr336       O354   2.322       .  S
Zr337       O341   2.349       .  S
Zr337       O352   2.341       .  S
Zr338       O342   2.346       .  S
Zr338       O352   2.340       .  S
Zr339       O341   2.341       .  S
Zr339       O354   2.324       .  S
Zr340       O341   2.340       .  S
Zr340       O342   2.337       .  S
Zr340       O354   2.323       .  S
Zr340       O352   2.347       .  S
C344        C453   1.462       .  S
C350        C449   1.466       .  S
H351        O352   0.966       .  S
H353        O354   0.964       .  S
C355        N356   1.365       .  A
C355        N360   1.349       .  A
C355        C579   1.465       .  S
N356        C357   1.365       .  A
C357        N358   1.372       .  A
C357        C461   1.504       .  S
N358        C359   1.372       .  A
C359        N360   1.348       .  A
C359        C421   1.479       .  S
C361        N362   1.356       .  A
C361        N366   1.359       .  A
C361        C818   1.496       .  S
N362        C363   1.354       .  A
C363        N364   1.368       .  A
C363        C548   1.462       .  S
N364        C365   1.368       .  A
C365        N366   1.358       .  A
C365        C423   1.463       .  S
C367        N368   1.372       .  A
C367        N372   1.348       .  A
C367        C424   1.479       .  S
N368        C369   1.373       .  A
C369        N370   1.366       .  A
C369        C525   1.506       .  S
N370        C371   1.367       .  A
C371        N372   1.349       .  A
C373        N374   1.360       .  A
C373        N378   1.358       .  A
C373        C764   1.455       .  S
N374        C375   1.354       .  A
C375        N376   1.360       .  A
C375        C393   1.471       .  S
N376        C377   1.358       .  A
C377        N378   1.350       .  A
O379       Zr415   2.469       .  S
O379        C390   1.299       .  A
O380       Zr414   2.520       .  S
O380        C391   1.307       .  A
O381       Zr387   2.485       .  S
O381        C392   1.302       .  A
O382       Zr387   2.480       .  S
O382        C393   1.300       .  A
O383       Zr417   2.402       .  S
O383        C393   1.286       .  A
O384       Zr416   2.399       .  S
O384        C392   1.282       .  A
O385       Zr387   2.359       .  S
O385        C391   1.275       .  A
O386       Zr387   2.400       .  S
O386        C390   1.283       .  A
Zr387       O388   2.354       .  S
Zr387       O389   2.318       .  S
Zr387       O397   2.340       .  S
Zr387       O395   2.334       .  S
O388       Zr414   2.333       .  S
O388       Zr417   2.331       .  S
O389       Zr415   2.339       .  S
O389       Zr416   2.332       .  S
H394        O395   0.965       .  S
O395       Zr414   2.353       .  S
O395       Zr416   2.328       .  S
H396        O397   0.965       .  S
O397       Zr415   2.339       .  S
O397       Zr417   2.351       .  S
O398       Zr414   2.499       .  S
O398        C421   1.305       .  A
O399       Zr415   2.475       .  S
O399        C422   1.298       .  A
O400       Zr416   2.530       .  S
O400        C423   1.309       .  A
O401       Zr417   2.491       .  S
O401        C424   1.303       .  A
O402       Zr417   2.476       .  S
O402        C425   1.299       .  A
O403       Zr416   2.481       .  S
O403        C426   1.302       .  A
O404       Zr418   2.524       .  S
O404        C427   1.308       .  A
O405       Zr418   2.483       .  S
O405        C428   1.302       .  A
O406       Zr416   2.352       .  S
O406        C427   1.275       .  A
O407       Zr417   2.403       .  S
O407        C428   1.284       .  A
O408       Zr414   2.352       .  S
O408        C423   1.275       .  A
O409       Zr415   2.398       .  S
O409        C426   1.283       .  A
O410       Zr415   2.408       .  S
O410        C425   1.286       .  A
O411       Zr414   2.405       .  S
O411        C424   1.283       .  A
O412       Zr418   2.405       .  S
O412        C421   1.284       .  A
O413       Zr418   2.409       .  S
O413        C422   1.287       .  A
Zr414       O420   2.346       .  S
Zr414       O432   2.323       .  S
Zr415       O419   2.339       .  S
Zr415       O430   2.351       .  S
Zr416       O420   2.344       .  S
Zr416       O430   2.355       .  S
Zr417       O419   2.350       .  S
Zr417       O432   2.333       .  S
Zr418       O419   2.348       .  S
Zr418       O420   2.342       .  S
Zr418       O432   2.349       .  S
Zr418       O430   2.339       .  S
C422        C443   1.471       .  S
C428        C437   1.469       .  S
H429        O430   0.966       .  S
H431        O432   0.965       .  S
C433        N434   1.370       .  A
C433        N438   1.347       .  A
C433        C511   1.473       .  S
N434        C435   1.370       .  A
C435        N436   1.367       .  A
N436        C437   1.368       .  A
C437        N438   1.348       .  A
C439        N440   1.358       .  A
C439        N444   1.361       .  A
C439        C746   1.457       .  S
N440        C441   1.351       .  A
C441        N442   1.358       .  A
C441        C514   1.467       .  S
N442        C443   1.359       .  A
C443        N444   1.355       .  A
C445        N446   1.373       .  A
C445        N450   1.348       .  A
C445        C517   1.480       .  S
N446        C447   1.373       .  A
C447        N448   1.366       .  A
C447        C593   1.506       .  S
N448        C449   1.366       .  A
C449        N450   1.349       .  A
C451        N452   1.357       .  A
C451        N456   1.358       .  A
C451        C767   1.497       .  S
N452        C453   1.356       .  A
C453        N454   1.367       .  A
N454        C455   1.368       .  A
C455        N456   1.356       .  A
C455        C512   1.459       .  S
C457        N458   1.350       .  A
C457        N462   1.371       .  A
C457        C658   1.479       .  S
N458        C459   1.350       .  A
C459        N460   1.367       .  A
C459        C513   1.471       .  S
N460        C461   1.366       .  A
C461        N462   1.372       .  A
C463        N464   1.357       .  A
C463        N468   1.359       .  A
C463        C785   1.453   1_655  S
N464        C465   1.350       .  A
C465        N466   1.359       .  A
C465        C627   1.466       .  S
N466        C467   1.359       .  A
C467        N468   1.353       .  A
C467        C482   1.469       .  S
O469       Zr505   2.482       .  S
O469        C480   1.302       .  A
O470       Zr504   2.470       .  S
O470        C481   1.298       .  A
O471       Zr477   2.477       .  S
O471        C482   1.299       .  A
O472       Zr477   2.470       .  S
O472        C483   1.299       .  A
O473       Zr507   2.410       .  S
O473        C483   1.285       .  A
O474       Zr506   2.406       .  S
O474        C482   1.286       .  A
O475       Zr477   2.410       .  S
O475        C481   1.287       .  A
O476       Zr477   2.400       .  S
O476        C480   1.284       .  A
Zr477       O478   2.335       .  S
Zr477       O479   2.350       .  S
Zr477       O487   2.339       .  S
Zr477       O485   2.337       .  S
O478       Zr504   2.347       .  S
O478       Zr507   2.342       .  S
O479       Zr505   2.353       .  S
O479       Zr506   2.341       .  S
H484        O485   0.965       .  S
O485       Zr504   2.348       .  S
O485       Zr506   2.353       .  S
H486        O487   0.965       .  S
O487       Zr505   2.331       .  S
O487       Zr507   2.316       .  S
O488       Zr504   2.483       .  S
O488        C511   1.302       .  A
O489       Zr505   2.525       .  S
O489        C512   1.308       .  A
O490       Zr506   2.482       .  S
O490        C513   1.302       .  A
O491       Zr507   2.476       .  S
O491        C514   1.300       .  A
O492       Zr507   2.482       .  S
O492        C515   1.301       .  A
O493       Zr506   2.526       .  S
O493        C516   1.308       .  A
O494       Zr508   2.497       .  S
O494        C517   1.305       .  A
O495       Zr508   2.514       .  S
O495        C518   1.305       .  A
O496       Zr506   2.405       .  S
O496        C517   1.284       .  A
O497       Zr507   2.372       .  S
O497        C518   1.275       .  A
O498       Zr504   2.404       .  S
O498        C513   1.285       .  A
O499       Zr505   2.351       .  S
O499        C516   1.275       .  A
O500       Zr505   2.406       .  S
O500        C515   1.283       .  A
O501       Zr504   2.408       .  S
O501        C514   1.287       .  A
O502       Zr508   2.399       .  S
O502        C511   1.282       .  A
O503       Zr508   2.348       .  S
O503        C512   1.274       .  A
Zr504       O510   2.334       .  S
Zr504       O522   2.330       .  S
Zr505       O509   2.327       .  S
Zr505       O520   2.348       .  S
Zr506       O510   2.348       .  S
Zr506       O520   2.342       .  S
Zr507       O509   2.334       .  S
Zr507       O522   2.361       .  S
Zr508       O509   2.352       .  S
Zr508       O510   2.321       .  S
Zr508       O522   2.334       .  S
Zr508       O520   2.343       .  S
H519        O520   0.966       .  S
H521        O522   0.965       .  S
C523        N524   1.374       .  A
C523        N528   1.347       .  A
C523        C716   1.482       .  S
N524        C525   1.374       .  A
C525        N526   1.365       .  A
N526        C527   1.366       .  A
C527        N528   1.349       .  A
C527        C583   1.465       .  S
C529        N530   1.357       .  A
C529        N534   1.360       .  A
C529        C728   1.497   1_545  S
N530        C531   1.355       .  A
C531        N532   1.366       .  A
C531        C578   1.462       .  S
N532        C533   1.366       .  A
C533        N534   1.358       .  A
C533        C710   1.461       .  S
O535       Zr571   2.501       .  S
O535        C546   1.306       .  A
O536       Zr570   2.480       .  S
O536        C547   1.300       .  A
O537       Zr543   2.519       .  S
O537        C548   1.307       .  A
O538       Zr543   2.490       .  S
O538        C549   1.304       .  A
O539       Zr573   2.404       .  S
O539        C549   1.285       .  A
O540       Zr572   2.364       .  S
O540        C548   1.276       .  A
O541       Zr543   2.395       .  S
O541        C547   1.284       .  A
O542       Zr543   2.407       .  S
O542        C546   1.284       .  A
Zr543       O544   2.344       .  S
Zr543       O545   2.337       .  S
Zr543       O553   2.340       .  S
Zr543       O551   2.346       .  S
O544       Zr570   2.342       .  S
O544       Zr573   2.340       .  S
O545       Zr571   2.341       .  S
O545       Zr572   2.343       .  S
H550        O551   0.965       .  S
O551       Zr570   2.338       .  S
O551       Zr572   2.341       .  S
H552        O553   0.965       .  S
O553       Zr571   2.339       .  S
O553       Zr573   2.343       .  S
O554       Zr570   2.467       .  S
O554        C577   1.298       .  A
O555       Zr571   2.520       .  S
O555        C578   1.307       .  A
O556       Zr572   2.464       .  S
O556        C579   1.297       .  A
O557       Zr573   2.516       .  S
O557        C580   1.306       .  A
O558       Zr573   2.494       .  S
O558        C581   1.305       .  A
O559       Zr572   2.478       .  S
O559        C582   1.300       .  A
O560       Zr574   2.461       .  S
O560        C583   1.297       .  A
O561       Zr574   2.478       .  S
O561        C584   1.299       .  A
O562       Zr572   2.404       .  S
O562        C583   1.284       .  A
O563       Zr573   2.407       .  S
O563        C584   1.287       .  A
O564       Zr570   2.400       .  S
O564        C579   1.283       .  A
O565       Zr571   2.398       .  S
O565        C582   1.285       .  A
O566       Zr571   2.400       .  S
O566        C581   1.284       .  A
O567       Zr570   2.364       .  S
O567        C580   1.276       .  A
O568       Zr574   2.397       .  S
O568        C577   1.282       .  A
O569       Zr574   2.361       .  S
O569        C578   1.275       .  A
Zr570       O576   2.324       .  S
Zr570       O588   2.341       .  S
Zr571       O575   2.341       .  S
Zr571       O586   2.351       .  S
Zr572       O576   2.324       .  S
Zr572       O586   2.341       .  S
Zr573       O575   2.340       .  S
Zr573       O588   2.346       .  S
Zr574       O575   2.343       .  S
Zr574       O576   2.323       .  S
Zr574       O588   2.339       .  S
Zr574       O586   2.344       .  S
C577        C603   1.465       .  S
C580        C611   1.461       .  S
H585        O586   0.966       .  S
H587        O588   0.965       .  S
C589        N590   1.347       .  A
C589        N594   1.372       .  A
N590        C591   1.348       .  A
C591        N592   1.367       .  A
C591        C662   1.466       .  S
N592        C593   1.366       .  A
C593        N594   1.372       .  A
C595        N596   1.360       .  A
C595        N600   1.357       .  A
C595        C731   1.455       .  S
N596        C597   1.354       .  A
C597        N598   1.359       .  A
N598        C599   1.358       .  A
C599        N600   1.350       .  A
C599        C656   1.465       .  S
C601        N602   1.347       .  A
C601        N606   1.371       .  A
C601        C655   1.474       .  S
N602        C603   1.347       .  A
C603        N604   1.366       .  A
N604        C605   1.366       .  A
C605        N606   1.371       .  A
C607        N608   1.357       .  A
C607        N612   1.358       .  A
C607        C749   1.496       .  S
N608        C609   1.355       .  A
C609        N610   1.367       .  A
C609        C657   1.460       .  S
N610        C611   1.367       .  A
C611        N612   1.357       .  A
O613       Zr649   2.466       .  S
O613        C624   1.298       .  A
O614       Zr648   2.517       .  S
O614        C625   1.307       .  A
O615       Zr621   2.477       .  S
O615        C626   1.300       .  A
O616       Zr621   2.475       .  S
O616        C627   1.299       .  A
O617       Zr651   2.396       .  S
O617        C627   1.284       .  A
O618       Zr650   2.396       .  S
O618        C626   1.282       .  A
O619       Zr621   2.360       .  S
O619        C625   1.276       .  A
O620       Zr621   2.408       .  S
O620        C624   1.284       .  A
Zr621       O622   2.352       .  S
Zr621       O623   2.315       .  S
Zr621       O631   2.338       .  S
Zr621       O629   2.335       .  S
O622       Zr648   2.331       .  S
O622       Zr651   2.332       .  S
O623       Zr649   2.337       .  S
O623       Zr650   2.331       .  S
H628        O629   0.965       .  S
O629       Zr648   2.354       .  S
O629       Zr650   2.329       .  S
H630        O631   0.965       .  S
O631       Zr649   2.336       .  S
O631       Zr651   2.349       .  S
O632       Zr648   2.493       .  S
O632        C655   1.304       .  A
O633       Zr649   2.466       .  S
O633        C656   1.297       .  A
O634       Zr650   2.523       .  S
O634        C657   1.307       .  A
O635       Zr651   2.484       .  S
O635        C658   1.302       .  A
O636       Zr651   2.479       .  S
O636        C659   1.299       .  A
O637       Zr650   2.477       .  S
O637        C660   1.301       .  A
O638       Zr652   2.520       .  S
O638        C661   1.306       .  A
O639       Zr652   2.475       .  S
O639        C662   1.301       .  A
O640       Zr650   2.350       .  S
O640        C661   1.274       .  A
O641       Zr651   2.402       .  S
O641        C662   1.284       .  A
O642       Zr648   2.356       .  S
O642        C657   1.275       .  A
O643       Zr649   2.402       .  S
O643        C660   1.284       .  A
O644       Zr649   2.412       .  S
O644        C659   1.287       .  A
O645       Zr648   2.412       .  S
O645        C658   1.285       .  A
O646       Zr652   2.400       .  S
O646        C655   1.283       .  A
O647       Zr652   2.404       .  S
O647        C656   1.286       .  A
Zr648       O654   2.346       .  S
Zr648       O666   2.323       .  S
Zr649       O653   2.338       .  S
Zr649       O664   2.353       .  S
Zr650       O654   2.343       .  S
Zr650       O664   2.353       .  S
Zr651       O653   2.346       .  S
Zr651       O666   2.332       .  S
Zr652       O653   2.348       .  S
Zr652       O654   2.339       .  S
Zr652       O666   2.348       .  S
Zr652       O664   2.339       .  S
H663        O664   0.966       .  S
H665        O666   0.965       .  S
O667       Zr703   2.482       .  S
O667        C678   1.302       .  A
O668       Zr702   2.474       .  S
O668        C679   1.298       .  A
O669       Zr675   2.471       .  S
O669        C680   1.299       .  A
O670       Zr675   2.470       .  S
O670        C681   1.298       .  A
O671       Zr705   2.403       .  S
O671        C681   1.286       .  A
O672       Zr704   2.403       .  S
O672        C680   1.283       .  A
O673       Zr675   2.412       .  S
O673        C679   1.287       .  A
O674       Zr675   2.399       .  S
O674        C678   1.284       .  A
Zr675       O676   2.335       .  S
Zr675       O677   2.338       .  S
Zr675       O685   2.353       .  S
Zr675       O683   2.336       .  S
O676       Zr702   2.349       .  S
O676       Zr705   2.348       .  S
O677       Zr703   2.332       .  S
O677       Zr704   2.315       .  S
H682        O683   0.965       .  S
O683       Zr702   2.347       .  S
O683       Zr704   2.338       .  S
H684        O685   0.966       .  S
O685       Zr703   2.356       .  S
O685       Zr705   2.340       .  S
O686       Zr702   2.487       .  S
O686        C709   1.303       .  A
O687       Zr703   2.529       .  S
O687        C710   1.308       .  A
O688       Zr704   2.473       .  S
O688        C711   1.298       .  A
O689       Zr705   2.482       .  S
O689        C712   1.302       .  A
O690       Zr705   2.529       .  S
O690        C713   1.309       .  A
O691       Zr704   2.482       .  S
O691        C714   1.301       .  A
O692       Zr706   2.520       .  S
O692        C715   1.307       .  A
O693       Zr706   2.509       .  S
O693        C716   1.307       .  A
O694       Zr704   2.359       .  S
O694        C715   1.275       .  A
O695       Zr705   2.403       .  S
O695        C716   1.283       .  A
O696       Zr702   2.412       .  S
O696        C711   1.288       .  A
O697       Zr703   2.397       .  S
O697        C714   1.282       .  A
O698       Zr703   2.352       .  S
O698        C713   1.274       .  A
O699       Zr702   2.400       .  S
O699        C712   1.284       .  A
O700       Zr706   2.395       .  S
O700        C709   1.282       .  A
O701       Zr706   2.350       .  S
O701        C710   1.275       .  A
Zr702       O708   2.329       .  S
Zr702       O720   2.335       .  S
Zr703       O707   2.347       .  S
Zr703       O718   2.328       .  S
Zr704       O708   2.355       .  S
Zr704       O718   2.334       .  S
Zr705       O707   2.343       .  S
Zr705       O720   2.349       .  S
Zr706       O707   2.346       .  S
Zr706       O708   2.336       .  S
Zr706       O720   2.321       .  S
Zr706       O718   2.355       .  S
H717        O718   0.965       .  S
H719        O720   0.965       .  S
C721        N727   1.343       .  A
C721        C726   1.411       .  A
C721        C722   1.406       .  A
C722        C723   1.393   1_565  A
C722        H733   1.083       .  S
C723        C732   1.372       .  A
C723        C724   1.377       .  A
C724        N730   1.338       .  A
C724        C725   1.391   1_545  A
C725        C726   1.404       .  A
C725        H734   1.084       .  S
C726        C729   1.372       .  A
N727        C728   1.351       .  A
N727        H737   1.047       .  S
C728        C729   1.387       .  A
C729        H735   1.085       .  S
N730        C731   1.351   1_554  A
N730        H738   1.045   1_554  S
C731        C732   1.393   1_556  A
C732        H736   1.083   1_554  S
C739        N745   1.339   1_545  A
C739        C744   1.376       .  A
C739        C740   1.391   1_655  A
C740        C741   1.405       .  A
C740        H751   1.084   1_455  S
C741        C750   1.372       .  A
C741        C742   1.412       .  A
C742        N748   1.342       .  A
C742        C743   1.405       .  A
C743        C744   1.393   1_455  A
C743        H752   1.083       .  S
C744        C747   1.372   1_545  A
N745        C746   1.352       .  A
N745        H755   1.045       .  S
C746        C747   1.392       .  A
C747        H753   1.083       .  S
N748        C749   1.350   1_455  A
N748        H756   1.047   1_455  S
C749        C750   1.386   1_655  A
C750        H754   1.085   1_455  S
C757        N763   1.339       .  A
C757        C762   1.377       .  A
C757        C758   1.392       .  A
C758        C759   1.405       .  A
C758        H769   1.084       .  S
C759        C768   1.372       .  A
C759        C760   1.412       .  A
C760        N766   1.343       .  A
C760        C761   1.405       .  A
C761        C762   1.392       .  A
C761        H770   1.083       .  S
C762        C765   1.370       .  A
N763        C764   1.352   1_556  A
N763        H773   1.045   1_556  S
C764        C765   1.392   1_554  A
C765        H771   1.082   1_556  S
N766        C767   1.350       .  A
N766        H774   1.047       .  S
C767        C768   1.387       .  A
C768        H772   1.085       .  S
C775        N781   1.342   1_554  A
C775        C780   1.412       .  A
C775        C776   1.406   1_554  A
C776        C777   1.393       .  A
C776        H787   1.083       .  S
C777        C786   1.371       .  A
C777        C778   1.376       .  A
C778        N784   1.338       .  A
C778        C779   1.391       .  A
C779        C780   1.404   1_556  A
C779        H788   1.084       .  S
C780        C783   1.373   1_554  A
N781        C782   1.350       .  A
N781        H791   1.047       .  S
C782        C783   1.386       .  A
C783        H789   1.085       .  S
N784        C785   1.351       .  A
N784        H792   1.045       .  S
C785        C786   1.391       .  A
C786        H790   1.083       .  S
C793        N799   1.338       .  A
C793        C798   1.376       .  A
C793        C794   1.392       .  A
C794        C795   1.405       .  A
C794        H805   1.084       .  S
C795        C804   1.373       .  A
C795        C796   1.411       .  A
C796        N802   1.343       .  A
C796        C797   1.406       .  A
C797        C798   1.394       .  A
C797        H806   1.083       .  S
C798        C801   1.374       .  A
N799        C800   1.352       .  A
N799        H809   1.045       .  S
C800        C801   1.393       .  A
C801        H807   1.082       .  S
N802        C803   1.350       .  A
N802        H810   1.047       .  S
C803        C804   1.387       .  A
C804        H808   1.086       .  S
C811        N817   1.342   1_556  A
C811        C816   1.412       .  A
C811        C812   1.405   1_556  A
C812        C813   1.393       .  A
C812        H823   1.083       .  S
C813        C822   1.371   1_655  A
C813        C814   1.377       .  A
C814        N820   1.339   1_655  A
C814        C815   1.391       .  A
C815        C816   1.404   1_554  A
C815        H824   1.084       .  S
C816        C819   1.372   1_556  A
N817        C818   1.350       .  A
N817        H827   1.047       .  S
C818        C819   1.386       .  A
C819        H825   1.085       .  S
N820        C821   1.351       .  A
N820        H828   1.045       .  S
C821        C822   1.392       .  A
C822        H826   1.083       .  S
C829        N835   1.338       .  A
C829        C834   1.376   1_455  A
C829        C830   1.392       .  A
C830        C831   1.405       .  A
C830        H841   1.084       .  S
C831        C840   1.373       .  A
C831        C832   1.412   1_455  A
C832        N838   1.342       .  A
C832        C833   1.405       .  A
C833        C834   1.393       .  A
C833        H842   1.083       .  S
C834        C837   1.372       .  A
N835        C836   1.352       .  A
N835        H845   1.045       .  S
C836        C837   1.391   1_455  A
C837        H843   1.082       .  S
N838        C839   1.349   1_655  A
N838        H846   1.047       .  S
C839        C840   1.387       .  A
C840        H844   1.085       .  S
C847        N853   1.339       .  A
C847        C852   1.377   1_455  A
C847        C848   1.391       .  A
C848        C849   1.405       .  A
C848        H859   1.084       .  S
C849        C858   1.372       .  A
C849        C850   1.412   1_455  A
C850        N856   1.342       .  A
C850        C851   1.405       .  A
C851        C852   1.393       .  A
C851        H860   1.083       .  S
C852        C855   1.371       .  A
N853        C854   1.351       .  A
N853        H863   1.045       .  S
C854        C855   1.392   1_455  A
C855        H861   1.083       .  S
N856        C857   1.350   1_655  A
N856        H864   1.047       .  S
C857        C858   1.386       .  A
C858        H862   1.085       .  S
C865        N871   1.340   1_565  A
C865        C870   1.377       .  A
C865        C866   1.392   1_565  A
C866        C867   1.405   1_545  A
C866        H877   1.084       .  S
C867        C876   1.372   1_565  A
C867        C868   1.411       .  A
C868        N874   1.343       .  A
C868        C869   1.406       .  A
C869        C870   1.394       .  A
C869        H878   1.083       .  S
C870        C873   1.371       .  A
N871        C872   1.352   1_545  A
N871        H881   1.045       .  S
C872        C873   1.393       .  A
C873        H879   1.083       .  S
N874        C875   1.350       .  A
N874        H882   1.047       .  S
C875        C876   1.387   1_565  A
C876        H880   1.085       .  S
C883        N889   1.340   1_565  A
C883        C888   1.376       .  A
C883        C884   1.392   1_565  A
C884        C885   1.406       .  A
C884        H895   1.084       .  S
C885        C894   1.373       .  A
C885        C886   1.411   1_545  A
C886        N892   1.342       .  A
C886        C887   1.404       .  A
C887        C888   1.392       .  A
C887        H896   1.083       .  S
C888        C891   1.370       .  A
N889        C890   1.353   1_545  A
N889        H899   1.045       .  S
C890        C891   1.391       .  A
C891        H897   1.082       .  S
N892        C893   1.349       .  A
N892        H900   1.047       .  S
C893        C894   1.388   1_565  A
C894        H898   1.085       .  S
C901        N907   1.339       .  A
C901        C906   1.377   1_556  A
C901        C902   1.391       .  A
C902        C903   1.404       .  A
C902        H913   1.084       .  S
C903        C912   1.372       .  A
C903        C904   1.411   1_556  A
C904        N910   1.342       .  A
C904        C905   1.406       .  A
C905        C906   1.393       .  A
C905        H914   1.083       .  S
C906        C909   1.371       .  A
N907        C908   1.351   1_556  A
N907        H917   1.045       .  S
C908        C909   1.393       .  A
C909        H915   1.083       .  S
N910        C911   1.351       .  A
N910        H918   1.047       .  S
C911        C912   1.386   1_554  A
C912        H916   1.085       .  S
C919        N925   1.338       .  A
C919        C924   1.376   1_556  A
C919        C920   1.391       .  A
C920        C921   1.404       .  A
C920        H931   1.084       .  S
C921        C930   1.373       .  A
C921        C922   1.411   1_556  A
C922        N928   1.342       .  A
C922        C923   1.406       .  A
C923        C924   1.393       .  A
C923        H932   1.083       .  S
C924        C927   1.373       .  A
N925        C926   1.352   1_556  A
N925        H935   1.045       .  S
C926        C927   1.391       .  A
C927        H933   1.082       .  S
N928        C929   1.350   1_554  A
N928        H936   1.047       .  S
C929        C930   1.387       .  A
C930        H934   1.085       .  S
