geometry optimzed in LAMMPS
_audit_creation_date              2020-11-30 
_audit_creation_method            'lammps2cif' 
_symmetry_space_group_name_H-M    'P1' 
_symmetry_Int_Tables_number       1 
_symmetry_cell_setting            triclinic 
loop_ 
_symmetry_equiv_pos_as_xyz 
  x,y,z 
_cell_length_a                    40.7599114 
_cell_length_b                    40.7508538352847 
_cell_length_c                    27.396706930015217 
_cell_angle_alpha                 90.23537240614704 
_cell_angle_beta                  91.92269064512872 
_cell_angle_gamma                 118.6306477318355 
loop_ 
_atom_site_label 
_atom_site_type_symbol 
_atom_site_fract_x 
_atom_site_fract_y 
_atom_site_fract_z 
_atom_site_charge 
C1          C  0.32642143  0.15311259  0.03379040     0.31400
C2          C  0.31601855  0.15997901  0.43469667     0.31400
C3          C  0.35138425  0.13830824  0.01038913    -0.04800
C4          C  0.28921635  0.13067686  0.00276587    -0.05600
C5          C  0.34245144  0.19231569  0.01137122    -0.05500
C6          C  0.32993169  0.13594338  0.46411712    -0.04800
C7          C  0.27788634  0.14809999  0.45734051    -0.05600
C8          C  0.34049553  0.19886157  0.45985088    -0.05500
C9          C  0.34502351  0.11254127  0.45393881    -0.30900
N10         N  0.35455050  0.10150535  0.49673299     0.15600
C11         C  0.36813126  0.11703835  0.02538187    -0.30900
H12         H  0.36902884  0.10762125  0.06203347     0.17600
C13         C  0.24243175  0.13931226  0.43970256    -0.29800
N14         N  0.22066370  0.13567279  0.47822533     0.14400
C15         C  0.25143735  0.10802806  0.00987057    -0.29800
C16         C  0.36881324  0.23285053  0.44597726    -0.30100
N17         N  0.38632211  0.24895654  0.99076140     0.14900
H18         H  0.37862231  0.24070894  0.40950193     0.17500
C19         C  0.36907294  0.22719233  0.02901020    -0.30100
H20         H  0.37764659  0.23505139  0.06696220     0.17500
H21         H  0.23827061  0.10109891  0.04473783     0.17500
H22         H  0.34943205  0.10471036  0.41792935     0.17600
H23         H  0.23391229  0.13751691  0.40157781     0.17500
C24         C  0.31775697  0.17533682  0.28433573     0.31400
C25         C  0.31252541  0.16613185  0.18180188     0.31400
C26         C  0.33601971  0.15368891  0.26230401    -0.04800
C27         C  0.27785341  0.15411452  0.26076905    -0.05600
C28         C  0.33496218  0.21130863  0.25362872    -0.05500
C29         C  0.33316514  0.14866708  0.21087876    -0.04800
C30         C  0.27536696  0.14957061  0.20889982    -0.05600
C31         C  0.33234354  0.20649284  0.20254279    -0.05500
C32         C  0.34557625  0.12356501  0.20106777    -0.30900
N33         N  0.35710010  0.11486087  0.24363246     0.15600
C34         C  0.35098227  0.13244188  0.28130140    -0.30900
H35         H  0.35693184  0.12975916  0.31942901     0.17600
C36         C  0.24182734  0.11820344  0.19800046    -0.29800
N37         N  0.22340154  0.10448325  0.23958664     0.14400
C38         C  0.24522177  0.12550075  0.27808482    -0.29800
C39         C  0.34799076  0.24158061  0.18267770    -0.30100
N40         N  0.36003817  0.26761865  0.21964591     0.14900
H41         H  0.34928754  0.24746834  0.14412834     0.17500
C42         C  0.35207756  0.24944435  0.26283944    -0.30100
H43         H  0.35782725  0.26309776  0.29844701     0.17500
H44         H  0.23959727  0.11819765  0.31594015     0.17500
H45         H  0.34504728  0.11074431  0.16634354     0.17600
H46         H  0.23278269  0.10445974  0.16242806     0.17500
N47         N  0.06745118  0.09793228  0.45788463    -0.04700
N48         N  0.10275776  0.11289637  0.47405981    -0.56900
N49         N  0.00490681  0.11061663  0.39726756    -0.04400
N50         N  0.01015196  0.13926835  0.37014918    -0.59000
N51         N  0.00520515  0.11884991  0.44369668    -0.04000
N52         N  0.01054300  0.15323523  0.44907186    -0.56800
N53         N  0.06433575  0.08667454  0.41228765    -0.03700
N54         N  0.09716335  0.09385589  0.39596139    -0.59300
C55         C  0.12092240  0.11007281  0.43498498     0.97400
C56         C  0.01344225  0.16576100  0.40289908     0.97200
N57         N  0.44993540  0.47992625  0.36660729    -0.04900
N58         N  0.42754240  0.45140033  0.33774052    -0.57400
N59         N  0.04244933  0.49299396  0.37506592    -0.03000
N60         N  0.06993151  0.48634892  0.36211748    -0.58700
N61         N  0.01351712  0.46166672  0.38845891    -0.05000
N62         N  0.02121191  0.43382178  0.38654729    -0.57700
N63         N  0.95000425  0.03788101  0.34968446    -0.02700
N64         N  0.93208197  0.05419288  0.32802898    -0.58800
Mn65       Mn  0.00910120  0.06073918  0.37619284     1.18400
C66         C  0.43063458  0.04787627  0.42730137     0.99500
C67         C  0.05592460  0.44900990  0.36942249     1.00200
N68         N  0.46020193  0.04364687  0.53741064    -0.05000
N69         N  0.45379260  0.07235959  0.54299655    -0.61300
N70         N  0.51379992  0.46430430  0.00403063    -0.03800
N71         N  0.52879905  0.44315262  0.01880888    -0.62000
N72         N  0.04919453  0.01686972  0.00378306    -0.04500
N73         N  0.07473003  0.04828198  0.02526643    -0.61600
N74         N  0.42823285  0.01215004  0.53026147    -0.03400
N75         N  0.40001309  0.01997540  0.53064216    -0.62200
Mn76       Mn  0.01555790  0.08494255  0.49745667     1.10700
C77         C  0.41626942  0.05752357  0.53875780     1.00700
C78         C  0.56428965  0.45991159  0.00245099     1.00800
N79         N  0.45665086  0.40787715  0.47647506    -0.04500
N80         N  0.45143368  0.37361133  0.47034917    -0.59900
N81         N  0.40347076  0.44839238  0.48720472    -0.03800
N82         N  0.36921273  0.44334080  0.49274547    -0.56600
N83         N  0.40631964  0.43831854  0.44306681    -0.05100
N84         N  0.37494566  0.42693111  0.41686681    -0.59400
N85         N  0.45082171  0.41384088  0.52178625    -0.04100
N86         N  0.44207219  0.38356858  0.54747986    -0.56600
Mn87       Mn  0.45860349  0.44616258  0.41949083     1.20200
Mn88       Mn  0.45163275  0.46779061  0.54047361     1.10100
Cl89       Cl  0.47121234  0.99426230  0.44711905    -0.84600
C90         C  0.44267906  0.35869759  0.51507815     0.97700
C91         C  0.35197843  0.43025919  0.44821771     0.97500
N92         N  0.06646109  0.02695503  0.25011974    -0.04700
N93         N  0.09414253  0.03864843  0.28375623    -0.56900
N94         N  0.07618056  0.09041265  0.17384985    -0.04400
N95         N  0.09655910  0.12448038  0.15727229    -0.59000
N96         N  0.05910268  0.09139788  0.21338747    -0.04000
N97         N  0.06807828  0.12644637  0.22479392    -0.56800
N98         N  0.07819318  0.02118469  0.20856554    -0.03700
N99         N  0.11228324  0.02582732  0.21451614    -0.59300
C100        C  0.12261428  0.03731589  0.26130249     0.97400
C101        C  0.09149960  0.14683205  0.18942818     0.97200
N102        N  0.51672199  0.53289665  0.08210630    -0.04900
N103        N  0.53374800  0.53371597  0.04190772    -0.57400
N104        N  0.06941840  0.49849378  0.14106433    -0.03000
N105        N  0.09491818  0.48820210  0.15243532    -0.58700
N106        N  0.03885121  0.46959563  0.12217152    -0.05000
N107        N  0.04356744  0.43954310  0.11995551    -0.57700
N108        N  0.00495986  0.03079853  0.14932184    -0.02700
N109        N  0.00474450  0.06360353  0.15065340    -0.58800
Mn110      Mn  0.06180476  0.03571859  0.13857521     1.18400
C111        C  0.43141436  0.03353725  0.12103512     0.99500
C112        C  0.07888314  0.45171236  0.13858012     1.00200
N113        N  0.47124041  0.07192486  0.21795049    -0.05000
N114        N  0.46125371  0.09773304  0.21000189    -0.61300
N115        N  0.49770709  0.47715666  0.21892394    -0.03800
N116        N  0.49722561  0.44475063  0.21035617    -0.62000
N117        N  0.97694518  0.98375534  0.27939523    -0.04500
N118        N  0.94847441  0.98242913  0.30194661    -0.61600
N119        N  0.44229596  0.04046574  0.23172720    -0.03400
N120        N  0.41232303  0.04473027  0.23411370    -0.62200
Mn121      Mn  0.01786458  0.03684942  0.24656682     1.10700
C122        C  0.42481978  0.08044365  0.22035808     1.00700
C123        C  0.52837840  0.44666250  0.23115248     1.00800
N124        N  0.44013826  0.42323483  0.15010404    -0.04500
N125        N  0.42919339  0.38836798  0.13536136    -0.59900
N126        N  0.41968353  0.49123338  0.16492886    -0.03800
N127        N  0.38520842  0.48594275  0.16503780    -0.56600
N128        N  0.42804638  0.48570916  0.12075688    -0.05100
N129        N  0.39737069  0.47278847  0.09150664    -0.59400
N130        N  0.42521223  0.42335414  0.19196068    -0.04100
N131        N  0.40432635  0.38893805  0.20680438    -0.56600
Mn132      Mn  0.47854715  0.47818109  0.11632850     1.20200
Mn133      Mn  0.44130807  0.47656308  0.23114589     1.10100
Cl134      Cl  0.49505289  0.01267122  0.17791270    -0.84600
C135        C  0.40696530  0.36730188  0.17128022     0.97700
C136        C  0.37109678  0.47431737  0.11954340     0.97500
C137        C  0.16287711  0.34860937  0.31123999     0.31400
C138        C  0.15728797  0.34930466  0.41317106     0.31400
C139        C  0.14849990  0.37441275  0.33270594    -0.04800
C140        C  0.13657343  0.31112319  0.33547913    -0.05600
C141        C  0.19996601  0.36179897  0.34280490    -0.05500
C142        C  0.14549432  0.37459023  0.38380028    -0.04800
C143        C  0.13417646  0.31188982  0.38643415    -0.05600
C144        C  0.19607030  0.36177096  0.39387258    -0.05500
C145        C  0.13080650  0.39794197  0.39420262    -0.30900
N146        N  0.12527747  0.41224079  0.35173829     0.15600
C147        C  0.13622417  0.39832985  0.31417075    -0.30900
H148        H  0.13420965  0.40422575  0.27604927     0.17600
C149        C  0.10549254  0.27837244  0.39954190    -0.29800
N150        N  0.08990462  0.25683267  0.35858509     0.14400
C151        C  0.10876719  0.27627728  0.31937188    -0.29800
C152        C  0.23060075  0.37771319  0.41623858    -0.30100
N153        N  0.25646259  0.38750133  0.38180373     0.14900
H154        H  0.23606622  0.38261371  0.45497730     0.17500
C155        C  0.23834036  0.37791830  0.33688743    -0.30100
H156        H  0.25234242  0.38338046  0.30272502     0.17500
H157        H  0.10164768  0.26639425  0.28177681     0.17500
H158        H  0.12420193  0.40380217  0.42999996     0.17600
H159        H  0.09630850  0.27072067  0.43634102     0.17500
C160        C  0.16805712  0.33310906  0.06150263     0.31400
C161        C  0.17983359  0.34815013  0.16284792     0.31400
C162        C  0.14857246  0.35441601  0.08463278    -0.04800
C163        C  0.15503244  0.29916233  0.09563104    -0.05600
C164        C  0.20905338  0.35760684  0.08079887    -0.05500
C165        C  0.15513277  0.36196101  0.13562743    -0.04800
C166        C  0.16070901  0.30665923  0.14620361    -0.05600
C167        C  0.21502888  0.36542948  0.13132149    -0.05500
C168        C  0.13624574  0.38064024  0.14953355    -0.30900
N169        N  0.11780920  0.38467290  0.10972169     0.15600
C170        C  0.12477531  0.36861131  0.07029802    -0.30900
H171        H  0.11312404  0.36750248  0.03397465     0.17600
C172        C  0.14756097  0.27261638  0.16895069    -0.29800
N173        N  0.13434864  0.24478560  0.13412191     0.14400
C174        C  0.13907351  0.26079380  0.08951721    -0.29800
C175        C  0.25297954  0.38977516  0.13896219    -0.30100
N176        N  0.27014277  0.39654339  0.09534893     0.14900
H177        H  0.26709418  0.40177931  0.17380255     0.17500
C178        C  0.24363467  0.37670381  0.05993202    -0.30100
H179        H  0.24900595  0.37718968  0.02155316     0.17500
H180        H  0.13165422  0.24555880  0.05490560     0.17500
H181        H  0.13541035  0.38990268  0.18629032     0.17600
H182        H  0.14858622  0.26863891  0.20788032     0.17500
C183        C  0.15972934  0.34519264  0.25350258    -0.15100
C184        C  0.18712054  0.35590263  0.21984938    -0.30200
H185        H  0.13121204  0.33212688  0.23837278     0.14000
H186        H  0.21595483  0.37030247  0.23318056     0.14500
C187        C  0.15459343  0.34919755  0.47042938    -0.15100
C188        C  0.16484239  0.32885262  0.50152196    -0.30200
H189        H  0.14473617  0.36708788  0.48576861     0.14000
H190        H  0.17942132  0.30647177  0.99577642     0.14500
C191        C  0.12007420  0.20503820  0.14117692    -0.15100
C192        C  0.10626091  0.18788324  0.18364934    -0.30200
H193        H  0.11939827  0.18807966  0.11004089     0.14000
H194        H  0.10451889  0.20386972  0.21427473     0.14500
C195        C  0.32955133  0.45286103  0.11241151    -0.15100
C196        C  0.30985200  0.42002823  0.08778060    -0.30200
H197        H  0.31415438  0.46163763  0.13600304     0.14000
H198        H  0.32394810  0.41021886  0.06339904     0.14500
C199        C  0.09935771  0.42966651  0.14136663    -0.15100
C200        C  0.09404002  0.40221125  0.10899491    -0.30200
H201        H  0.12242336  0.43923363  0.16821949     0.14000
H202        H  0.07309390  0.39483996  0.07945702     0.14500
C203        C  0.05942126  0.21915014  0.35717491    -0.15100
C204        C  0.03590236  0.20594834  0.39422366    -0.30200
H205        H  0.05758810  0.20047963  0.32752218     0.14000
H206        H  0.03730483  0.22476318  0.42330471     0.14500
C207        C  0.31219458  0.41775227  0.43650614    -0.15100
C208        C  0.29631706  0.40424937  0.39156942    -0.30200
H209        H  0.29584853  0.41897515  0.46609537     0.14000
H210        H  0.31371632  0.40478633  0.36206211     0.14500
C211        C  0.07688721  0.42768779  0.37059943    -0.15100
C212        C  0.10807136  0.43597635  0.34685191    -0.30200
H213        H  0.06487496  0.40239252  0.39182689     0.14000
H214        H  0.11903061  0.45899410  0.32167687     0.14500
C215        C  0.52235839  0.41393059  0.25707718    -0.17500
C216        C  0.49718463  0.39265714  0.28137614     0.06900
C217        C  0.42998561  0.09835917  0.37950646     0.08800
C218        C  0.41868368  0.07314684  0.40768454    -0.18000
C219        C  0.40010052  0.02486451  0.08822443    -0.17100
C220        C  0.38028338  0.99702231  0.06421759     0.06900
C221        C  0.61680534  0.50585052  0.05134962     0.08800
C222        C  0.59645131  0.47442943  0.03562933    -0.18000
C223        C  0.40189105  0.09852773  0.21544363    -0.15100
C224        C  0.37592345  0.09316557  0.24739368    -0.30200
H225        H  0.40894734  0.11961821  0.18773784     0.14000
H226        H  0.37175493  0.07546146  0.27869394     0.14500
C227        C  0.37619439  0.30773331  0.21547109    -0.15100
C228        C  0.39069776  0.32605752  0.17396795    -0.30200
H229        H  0.37734854  0.32381386  0.24785265     0.14000
H230        H  0.39163263  0.31090813  0.14187281     0.14500
C231        C  0.16235725  0.06425545  0.27367856    -0.15100
C232        C  0.18829080  0.07062411  0.24036586    -0.30200
H233        H  0.16911805  0.08276887  0.30538597     0.14000
H234        H  0.18043923  0.05237180  0.20815357     0.14500
C235        C  0.36993762  0.07586824  0.50125415    -0.15100
C236        C  0.39736286  0.08132380  0.53486029    -0.30200
H237        H  0.36060785  0.05285528  0.47492787     0.14000
H238        H  0.40918053  0.10665921  0.55742499     0.14500
C239        C  0.41284130  0.29371983  0.48428610    -0.15100
C240        C  0.42149194  0.31802523  0.52212003    -0.30200
H241        H  0.41545083  0.30486391  0.02372087     0.14000
H242        H  0.40938979  0.30855310  0.55731877     0.14500
C243        C  0.18227630  0.12844045  0.47699862    -0.15100
C244        C  0.16056635  0.11868850  0.43572991    -0.30200
H245        H  0.17580188  0.07505666  0.98763511     0.14000
H246        H  0.17147383  0.11558436  0.40148980     0.14500
C247        C  0.31340139  0.15484397  0.37698003    -0.15100
C248        C  0.32179684  0.18170018  0.34184099    -0.30200
H249        H  0.30129732  0.12610431  0.36372880     0.14000
H250        H  0.33202828  0.21020703  0.35447088     0.14500
C251        C  0.32692046  0.15221009  0.09158272    -0.15100
C252        C  0.30851453  0.16343555  0.12359338    -0.30200
H253        H  0.34668637  0.14451074  0.10728154     0.14000
H254        H  0.29053097  0.17356305  0.10722674     0.14500
C255        C  0.31489781  0.16371746  0.53714326     0.31400
C256        C  0.33113803  0.15643365  0.93203659     0.31400
C257        C  0.32963396  0.13826333  0.51539189    -0.04800
C258        C  0.27742690  0.14990552  0.50839792    -0.05600
C259        C  0.33978794  0.20072808  0.51149342    -0.05500
C260        C  0.35337231  0.14000086  0.95926647    -0.04800
C261        C  0.29246866  0.13271189  0.95171441    -0.05600
C262        C  0.34437464  0.19363329  0.95979467    -0.05500
C263        C  0.37014293  0.11934898  0.94510516    -0.30900
N264        N  0.37972756  0.10610750  0.98533585     0.15600
C265        C  0.34524568  0.11713019  0.53417927    -0.30900
H266        H  0.34908583  0.11304159  0.57238137     0.17600
C267        C  0.25795975  0.11161644  0.92996179    -0.29800
N268        N  0.23289076  0.09659957  0.96534218     0.14400
C269        C  0.24189801  0.14223162  0.52008548    -0.29800
C270        C  0.37162739  0.22865312  0.94879135    -0.30100
N271        N  0.38431195  0.25523480  0.48625215     0.14900
H272        H  0.38156853  0.23771093  0.91260501     0.17500
C273        C  0.36741176  0.23576103  0.52638815    -0.30100
H274        H  0.37585778  0.24571834  0.56365525     0.17500
H275        H  0.23250270  0.14275692  0.55643692     0.17500
H276        H  0.37289514  0.11230618  0.90795203     0.17600
H277        H  0.25159496  0.10886956  0.89105858     0.17500
C278        C  0.31811185  0.17358202  0.78630962     0.31400
C279        C  0.31755735  0.18398061  0.68531644     0.31400
C280        C  0.34053954  0.15924934  0.75528212    -0.04800
C281        C  0.27936486  0.15544238  0.75879671    -0.05600
C282        C  0.33376509  0.21415690  0.76925598    -0.05500
C283        C  0.33978115  0.16497915  0.70471798    -0.04800
C284        C  0.27907675  0.16019308  0.70785784    -0.05600
C285        C  0.33366486  0.21972487  0.71870681    -0.05500
C286        C  0.36062803  0.15133149  0.68268936    -0.30900
N287        N  0.37410274  0.13680493  0.71714888     0.15600
C288        C  0.36258714  0.14169743  0.76151550    -0.30900
H289        H  0.36958406  0.13245906  0.79519456     0.17600
C290        C  0.24223439  0.14769274  0.69276971    -0.29800
N291        N  0.22040464  0.13631284  0.73233344     0.14400
C292        C  0.24273151  0.14107465  0.77271307    -0.29800
C293        C  0.34912960  0.25801407  0.71308713    -0.30100
N294        N  0.35762652  0.27535096  0.75801524     0.14900
H295        H  0.35561783  0.27242309  0.67876210     0.17500
C296        C  0.34885999  0.24878517  0.79229516    -0.30100
H297        H  0.35502576  0.25444347  0.83111838     0.17500
H298        H  0.23306873  0.13474984  0.80954997     0.17500
H299        H  0.36635939  0.15259935  0.64432134     0.17600
H300        H  0.23212686  0.14802243  0.65582526     0.17500
N301        N  0.08360458  0.04722926  0.91408874    -0.04700
N302        N  0.11700044  0.06072159  0.93534960    -0.56900
N303        N  0.02498357  0.05863788  0.84461599    -0.04400
N304        N  0.03458709  0.08776162  0.81595293    -0.59000
N305        N  0.02340314  0.06938743  0.88895740    -0.04000
N306        N  0.03086124  0.10448482  0.89152993    -0.56800
N307        N  0.08215617  0.03164621  0.87162523    -0.03700
N308        N  0.11515252  0.03438802  0.86266273    -0.59300
C309        C  0.13645422  0.05259186  0.90330978     0.97400
C310        C  0.03778762  0.11610323  0.84557517     0.97200
N311        N  0.45651017  0.47089663  0.86951209    -0.04900
N312        N  0.42550013  0.47298785  0.87887423    -0.57400
N313        N  0.03300427  0.46054511  0.80452702    -0.03000
N314        N  0.06282307  0.45638811  0.79807469    -0.58700
N315        N  0.00372566  0.42756641  0.81182872    -0.05000
N316        N  0.01375205  0.40117064  0.81030295    -0.57700
N317        N  0.96575480  0.97425490  0.81576410    -0.02700
N318        N  0.94873792  0.99408124  0.82380918    -0.58800
Mn319      Mn  0.02608048  0.00333836  0.83547777     1.18400
C320        C  0.48098370  0.06158862  0.88097053     0.99500
C321        C  0.05046552  0.41943951  0.80171481     1.00200
N322        N  0.48098561  0.04014832  0.98728342    -0.05000
N323        N  0.47881082  0.07005967  0.00178399    -0.61300
N324        N  0.50609637  0.48607536  0.50334811    -0.03800
N325        N  0.52178776  0.46379844  0.49976884    -0.62000
N326        N  0.02619097  0.04684212  0.54042223    -0.04500
N327        N  0.05892786  0.05034503  0.52876054    -0.61600
N328        N  0.44768741  0.01308085  0.97246487    -0.03400
N329        N  0.42267661  0.02492003  0.97495086    -0.62200
Mn330      Mn  0.03412507  0.04306910  0.94740644     1.10700
C331        C  0.44218788  0.06015566  0.99407576     1.00700
C332        C  0.55737601  0.48628689  0.48851528     1.00800
N333        N  0.46287531  0.38710010  0.90709969    -0.04500
N334        N  0.46111179  0.35407088  0.90278288    -0.59900
N335        N  0.40250877  0.41444489  0.93305137    -0.03800
N336        N  0.36919786  0.40442963  0.94984324    -0.56600
N337        N  0.39966717  0.40145711  0.88784935    -0.05100
N338        N  0.36419976  0.38313442  0.87277877    -0.59400
N339        N  0.46208393  0.39513544  0.95311508    -0.04100
N340        N  0.45948534  0.36777626  0.98108931    -0.56600
Mn341      Mn  0.45172696  0.41663803  0.84731358     1.20200
Mn342      Mn  0.45752395  0.44390997  0.97244410     1.10100
Cl343      Cl  0.49893531  0.99082049  0.90619506    -0.84600
C344        C  0.45903805  0.34218360  0.94907931     0.97700
C345        C  0.34567477  0.38500804  0.91199875     0.97500
N346        N  0.06056284  0.07067791  0.73854051    -0.04700
N347        N  0.08977060  0.10216215  0.75587083    -0.56900
N348        N  0.06728292  0.06627608  0.63055497    -0.04400
N349        N  0.09885002  0.09295446  0.61251957    -0.59000
N350        N  0.04431001  0.08019929  0.63620164    -0.04000
N351        N  0.05817634  0.11418419  0.61962336    -0.56800
N352        N  0.07152233  0.04529585  0.73324665    -0.03700
N353        N  0.10626230  0.05800856  0.74962900    -0.59300
C354        C  0.11784266  0.09349156  0.76374900     0.97400
C355        C  0.09211959  0.12242532  0.60464843     0.97200
N356        N  0.51440201  0.44659996  0.60491570    -0.04900
N357        N  0.51744710  0.41768644  0.58790617    -0.57400
N358        N  0.06565076  0.47228630  0.69061003    -0.03000
N359        N  0.09263848  0.46297708  0.68954214    -0.58700
N360        N  0.03283409  0.44178965  0.69284942    -0.05000
N361        N  0.03750166  0.41185393  0.69409268    -0.57700
N362        N  0.03956860  0.97219492  0.60572708    -0.02700
N363        N  0.06438190  0.96645118  0.58288006    -0.58800
Mn364      Mn  0.05533883  0.01142971  0.66815533     1.18400
C365        C  0.55843575  0.95147928  0.56683688     0.99500
C366        C  0.07477479  0.42533447  0.69250051     1.00200
N367        N  0.45986255  0.06867783  0.66351095    -0.05000
N368        N  0.45254066  0.09702771  0.66342008    -0.61300
N369        N  0.45794644  0.52961096  0.76541867    -0.03800
N370        N  0.43285303  0.53720252  0.78383753    -0.62000
N371        N  0.96781543  0.05057858  0.75482817    -0.04500
N372        N  0.96503608  0.07511588  0.78408699    -0.61600
N373        N  0.42846895  0.03682171  0.65764064    -0.03400
N374        N  0.39977119  0.04338060  0.65242474    -0.62200
Mn375      Mn  0.00865589  0.06563113  0.69649276     1.10700
C376        C  0.41506679  0.08094779  0.65571584     1.00700
C377        C  0.45095840  0.57416694  0.79344381     1.00800
N378        N  0.45158878  0.42290642  0.73581949    -0.04500
N379        N  0.43794299  0.38882405  0.75205089    -0.59900
N380        N  0.41556825  0.45203794  0.64287475    -0.03800
N381        N  0.38121488  0.44024548  0.62581109    -0.56600
N382        N  0.42767189  0.42837241  0.63195856    -0.05100
N383        N  0.39991751  0.39865332  0.60909454    -0.59400
N384        N  0.43022625  0.43775096  0.74659773    -0.04100
N385        N  0.40002117  0.41196676  0.76800614    -0.56600
Mn386      Mn  0.48119718  0.43539809  0.66933128     1.20200
Mn387      Mn  0.43687300  0.48857275  0.70565082     1.10100
Cl388      Cl  0.49090971  0.00437118  0.67366574    -0.84600
C389        C  0.40552128  0.38150877  0.77158938     0.97700
C390        C  0.37136929  0.40698880  0.60442767     0.97500
C391        C  0.15120080  0.31397288  0.80768470     0.31400
C392        C  0.14983937  0.32302229  0.90954995     0.31400
C393        C  0.13140788  0.33553241  0.82580628    -0.04800
C394        C  0.13162363  0.27803402  0.83738763    -0.05600
C395        C  0.18943693  0.33461006  0.83569962    -0.05500
C396        C  0.13053874  0.33987628  0.87659472    -0.04800
C397        C  0.13077879  0.28231682  0.88849112    -0.05600
C398        C  0.18866279  0.33965717  0.88694460    -0.05500
C399        C  0.10648130  0.35416329  0.88415201    -0.30900
N400        N  0.09379044  0.35943349  0.84014869     0.15600
C401        C  0.10831332  0.34781791  0.80439073    -0.30900
H402        H  0.10037202  0.34590138  0.76609697     0.17600
C403        C  0.10823753  0.24700709  0.90554240    -0.29800
N404        N  0.09582749  0.22188733  0.86725899     0.14400
C405        C  0.10991295  0.24061487  0.82558247    -0.29800
C406        C  0.22331086  0.34763089  0.90629191    -0.30100
N407        N  0.24486195  0.34777913  0.86954176     0.14900
H408        H  0.23108331  0.34991425  0.94463831     0.17500
C409        C  0.22417200  0.33831123  0.82726108    -0.30100
H410        H  0.23338041  0.33175847  0.79392476     0.17500
H411        H  0.10377368  0.22837691  0.78910899     0.17500
H412        H  0.09774996  0.35927634  0.91894274     0.17600
H413        H  0.10039966  0.24017942  0.94300670     0.17500
C414        C  0.16550952  0.32765926  0.55918476     0.31400
C415        C  0.17207436  0.32202910  0.66066992     0.31400
C416        C  0.14874268  0.34721173  0.59153556    -0.04800
C417        C  0.14776248  0.28760337  0.58028033    -0.05600
C418        C  0.20546959  0.34362617  0.58211821    -0.05500
C419        C  0.15217209  0.34361028  0.64227793    -0.04800
C420        C  0.15127074  0.28466120  0.63130726    -0.05600
C421        C  0.20891251  0.34119354  0.63296810    -0.05500
C422        C  0.13920471  0.36468248  0.66551954    -0.30900
N423        N  0.12725251  0.38095326  0.63157476     0.15600
C424        C  0.13326082  0.37109008  0.58642543    -0.30900
H425        H  0.12718073  0.38125586  0.55290053     0.17600
C426        C  0.14058195  0.24746257  0.64014193    -0.29800
N427        N  0.13053280  0.22786040  0.59683423     0.14400
C428        C  0.13441399  0.25200452  0.56052426    -0.29800
C429        C  0.24664865  0.35556263  0.64450848    -0.30100
N430        N  0.26581214  0.36571363  0.60265631     0.14900
H431        H  0.25944577  0.35933379  0.68079964     0.17500
C432        C  0.24105418  0.35893253  0.56466594    -0.30100
H433        H  0.24869355  0.36553021  0.52728826     0.17500
H434        H  0.12806400  0.24417170  0.52218759     0.17500
H435        H  0.14055810  0.36972754  0.70441859     0.17600
H436        H  0.13970653  0.23546025  0.67556598     0.17500
C437        C  0.14833313  0.30829041  0.75025891    -0.15100
C438        C  0.17675843  0.32242033  0.71782552    -0.30200
H439        H  0.12007907  0.29308927  0.73442209     0.14000
H440        H  0.20496948  0.33899173  0.73210497     0.14500
C441        C  0.14873594  0.33115663  0.96622916    -0.15100
C442        C  0.16515374  0.32219467  0.00498627    -0.30200
H443        H  0.13508072  0.34730453  0.97505979     0.14000
H444        H  0.17554816  0.31209024  0.48418284     0.14500
C445        C  0.10805872  0.18778163  0.59142954    -0.15100
C446        C  0.12046370  0.16271301  0.60056500    -0.30200
H447        H  0.07874900  0.17739553  0.58084845     0.14000
H448        H  0.14986133  0.17200209  0.60893695     0.14500
C449        C  0.33110904  0.37925843  0.59689128    -0.15100
C450        C  0.30521208  0.39079539  0.60091950    -0.30200
H451        H  0.32260430  0.34978775  0.59179763     0.14000
H452        H  0.31408554  0.42037924  0.60586234     0.14500
C453        C  0.09135895  0.40108111  0.68094251    -0.15100
C454        C  0.11308820  0.40645960  0.64248075    -0.30200
H455        H  0.08237527  0.37585729  0.70182598     0.14000
H456        H  0.11910739  0.42955257  0.61834962     0.14500
C457        C  0.07073340  0.18240303  0.87210922    -0.15100
C458        C  0.06038969  0.15655990  0.83525241    -0.30200
H459        H  0.06076673  0.17306997  0.90841294     0.14000
H460        H  0.07017740  0.16465867  0.79868640     0.14500
C461        C  0.30546506  0.37254213  0.91188750    -0.15100
C462        C  0.28300480  0.35515280  0.87286345    -0.30200
H463        H  0.29477758  0.37974323  0.94359009     0.14000
H464        H  0.29456749  0.34909709  0.84099050     0.14500
C465        C  0.07560530  0.40298104  0.80626110    -0.15100
C466        C  0.06726266  0.37278291  0.83311656    -0.30200
H467        H  0.10284138  0.41748759  0.79027517     0.14000
H468        H  0.04184082  0.36029292  0.85352510     0.14500
C469        C  0.43547730  0.59093277  0.82452630    -0.17500
C470        C  0.41598696  0.58125279  0.85892813     0.06900
C471        C  0.44652866  0.09976269  0.88870838     0.08800
C472        C  0.46773646  0.08723987  0.89384967    -0.18000
C473        C  0.57934213  0.93507198  0.54682343    -0.17100
C474        C  0.58303908  0.92239683  0.50929618     0.06900
C475        C  0.59480038  0.45112988  0.48234221     0.08800
C476        C  0.58363430  0.47344864  0.47770308    -0.18000
C477        C  0.39249952  0.09954055  0.66643223    -0.15100
C478        C  0.39756795  0.12002788  0.70766006    -0.30200
H479        H  0.36862975  0.09315152  0.64202585     0.14000
H480        H  0.41883846  0.12307642  0.73494167     0.14500
C481        C  0.38445061  0.31408683  0.76677152    -0.15100
C482        C  0.37532650  0.34178239  0.77269840    -0.30200
H483        H  0.41370836  0.32109135  0.76584164     0.14000
H484        H  0.34625265  0.33529717  0.77401933     0.14500
C485        C  0.15848715  0.12087634  0.76363968    -0.15100
C486        C  0.17998594  0.11705195  0.72971382    -0.30200
H487        H  0.17100668  0.14200977  0.79259394     0.14000
H488        H  0.16628534  0.09756585  0.69913293     0.14500
C489        C  0.39266850  0.07881207  0.98334356    -0.15100
C490        C  0.42624428  0.08574960  0.00274776    -0.30200
H491        H  0.37693889  0.05410526  0.96004804     0.14000
H492        H  0.44337741  0.11188843  0.02273505     0.14500
C493        C  0.41557868  0.28713919  0.99406888    -0.15100
C494        C  0.43966109  0.30193455  0.95798735    -0.30200
H495        H  0.42467422  0.30416316  0.44907782     0.14000
H496        H  0.44019405  0.28393454  0.92909300     0.14500
C497        C  0.19290157  0.07694730  0.95706464    -0.15100
C498        C  0.17632480  0.06390097  0.91228210    -0.30200
H499        H  0.17035294  0.13022445  0.51117948     0.14000
H500        H  0.19222481  0.06342291  0.88161925     0.14500
C501        C  0.33413330  0.15795604  0.87505806    -0.15100
C502        C  0.31604261  0.17051344  0.84347656    -0.30200
H503        H  0.35244912  0.14872603  0.86013413     0.14000
H504        H  0.29846656  0.18048317  0.85989485     0.14500
C505        C  0.31098730  0.16149016  0.59426845    -0.15100
C506        C  0.31919444  0.18957768  0.62839933    -0.30200
H507        H  0.29937505  0.13338842  0.60827625     0.14000
H508        H  0.32908850  0.21776223  0.61581398     0.14500
C509        C  0.34096222  0.65762044  0.03212480     0.31400
C510        C  0.33843020  0.66534273  0.43664626     0.31400
C511        C  0.36295569  0.63755696  0.01273187    -0.04800
C512        C  0.30338495  0.63624454  0.00024970    -0.05600
C513        C  0.36046313  0.69627974  0.00472662    -0.05500
C514        C  0.33907666  0.63195043  0.46236440    -0.04800
C515        C  0.30348657  0.66464492  0.45711522    -0.05600
C516        C  0.36992495  0.69895232  0.46597454    -0.05500
C517        C  0.36053450  0.61479970  0.45279756    -0.30900
N518        N  0.36782987  0.60148266  0.49470417     0.15600
C519        C  0.38148266  0.61867010  0.03193767    -0.30900
H520        H  0.38566251  0.61496372  0.07028582     0.17600
C521        C  0.27098755  0.66223293  0.43748171    -0.29800
N522        N  0.24870000  0.65988708  0.47464783     0.14400
C523        C  0.26482594  0.61625295  0.00638823    -0.29800
C524        C  0.38582170  0.73628890  0.45548792    -0.30100
N525        N  0.38581809  0.75367407  0.96976486     0.14900
H526        H  0.38373170  0.74690599  0.42025357     0.17500
C527        C  0.37453101  0.73495096  0.01286870    -0.30100
H528        H  0.37539287  0.74854340  0.04717830     0.17500
H529        H  0.25124845  0.61146837  0.04089756     0.17500
H530        H  0.37361055  0.61593471  0.41863267     0.17600
H531        H  0.26380123  0.66127846  0.39897231     0.17500
C532        C  0.35369458  0.68463871  0.28759045     0.31400
C533        C  0.35011373  0.68219684  0.18405000     0.31400
C534        C  0.37126083  0.66375462  0.26182438    -0.04800
C535        C  0.31458608  0.66664641  0.26237799    -0.05600
C536        C  0.37235953  0.72234383  0.26180063    -0.05500
C537        C  0.36939364  0.66217939  0.21016228    -0.04800
C538        C  0.31257281  0.66508888  0.21047916    -0.05600
C539        C  0.37077246  0.72121601  0.21028704    -0.05500
C540        C  0.38410820  0.63960939  0.19638168    -0.30900
N541        N  0.39532715  0.62856180  0.23743744     0.15600
C542        C  0.38754775  0.64300489  0.27734209    -0.30900
H543        H  0.39189220  0.63740705  0.31492888     0.17600
C544        C  0.27537031  0.64422727  0.19714290    -0.29800
N545        N  0.25531525  0.63374307  0.23830053     0.14400
C546        C  0.27884429  0.64747848  0.27809487    -0.29800
C547        C  0.38965113  0.75782700  0.19607440    -0.30100
N548        N  0.40193579  0.78070074  0.23643197     0.14900
H549        H  0.39444732  0.76740999  0.15890618     0.17500
C550        C  0.39154438  0.75944371  0.27679754    -0.30100
H551        H  0.39819116  0.77009755  0.31408792     0.17500
H552        H  0.27068145  0.64235845  0.31551746     0.17500
H553        H  0.38594877  0.63125162  0.15948464     0.17600
H554        H  0.26376164  0.63582115  0.16025386     0.17500
N555        N  0.09415373  0.60493434  0.45015446    -0.04700
N556        N  0.12944295  0.62710858  0.46374875    -0.56900
N557        N  0.02709171  0.59447336  0.37532241    -0.04400
N558        N  0.03452516  0.61974286  0.34108918    -0.59000
N559        N  0.02503750  0.60867693  0.41763521    -0.04000
N560        N  0.02898669  0.64246722  0.41235575    -0.56800
N561        N  0.09142205  0.58489451  0.41068482    -0.03700
N562        N  0.12514148  0.59436522  0.39581484    -0.59300
C563        C  0.14839226  0.62060106  0.42881073     0.97400
C564        C  0.03409358  0.64899450  0.36423897     0.97200
N565        N  0.44234710  0.00293743  0.41089714    -0.04900
N566        N  0.41491609  0.01206960  0.41131094    -0.57400
N567        N  0.01610242  0.00949636  0.36420793    -0.03000
N568        N  0.04680864  0.00738951  0.35453658    -0.58700
N569        N  0.98952846  0.97600840  0.37455600    -0.05000
N570        N  0.00132583  0.95084564  0.37076204    -0.57700
N571        N  0.98157181  0.50481556  0.33609841    -0.02700
N572        N  0.98128298  0.48195321  0.30214073    -0.58800
Mn573      Mn  0.03566765  0.54417774  0.37408511     1.18400
C574        C  0.45077686  0.44863160  0.30723092     0.99500
C575        C  0.03716266  0.97051207  0.35750883     1.00200
N576        N  0.47374374  0.55407055  0.53892059    -0.05000
N577        N  0.45835926  0.57610652  0.53511310    -0.61300
N578        N  0.46961630  0.94697211  0.00049479    -0.03800
N579        N  0.44026155  0.92465164  0.02518003    -0.62000
N580        N  0.04270905  0.48454714  0.97428553    -0.04500
N581        N  0.07120468  0.47846288  0.96935833    -0.61600
N582        N  0.44831286  0.51997394  0.55003698    -0.03400
N583        N  0.41553931  0.51899019  0.55416604    -0.62200
Mn584      Mn  0.03962272  0.58772873  0.48935217     1.10700
C585        C  0.42222014  0.55403427  0.54464430     1.00700
C586        C  0.43708244  0.94781039  0.05655451     1.00800
N587        N  0.42068994  0.90184311  0.42713231    -0.04500
N588        N  0.42130210  0.87083338  0.41560130    -0.59900
N589        N  0.37759851  0.94372838  0.44827879    -0.03800
N590        N  0.34388208  0.93842977  0.45666684    -0.56600
N591        N  0.38044390  0.93842630  0.40136262    -0.05100
N592        N  0.34875200  0.92984482  0.37688902    -0.59400
N593        N  0.41335052  0.90218054  0.47367994    -0.04100
N594        N  0.40974679  0.87160371  0.49487321    -0.56600
Mn595      Mn  0.43460006  0.94823962  0.37617813     1.20200
Mn596      Mn  0.42143169  0.95484469  0.50612362     1.10100
Cl597      Cl  0.49331389  0.50707727  0.46716009    -0.84600
C598        C  0.41461947  0.85247829  0.45780254     0.97700
C599        C  0.32640073  0.93007533  0.41225017     0.97500
N600        N  0.09820108  0.56445463  0.27239100    -0.04700
N601        N  0.12877691  0.57732966  0.30116059    -0.56900
N602        N  0.07329872  0.60500769  0.18697496    -0.04400
N603        N  0.07989326  0.63449659  0.16097042    -0.59000
N604        N  0.05956004  0.60661482  0.22875524    -0.04000
N605        N  0.05640794  0.63717247  0.23279712    -0.56800
N606        N  0.10495513  0.55556546  0.22925963    -0.03700
N607        N  0.13941694  0.56171218  0.22770425    -0.59300
C608        C  0.15447640  0.57567907  0.27226102     0.97400
C609        C  0.06934934  0.65424107  0.19026371     0.97200
N610        N  0.46006960  0.00320927  0.14485868    -0.04900
N611        N  0.42768121  0.00357549  0.14512553    -0.57400
N612        N  0.05049645  0.98176449  0.10804990    -0.03000
N613        N  0.07790175  0.97366770  0.10395459    -0.58700
N614        N  0.01865033  0.95377161  0.09110317    -0.05000
N615        N  0.02438473  0.92617548  0.07582952    -0.57700
N616        N  0.04720656  0.55974682  0.09924617    -0.02700
N617        N  0.07631237  0.58183851  0.07384080    -0.58800
Mn618      Mn  0.07263116  0.55330304  0.16372541     1.18400
C619        C  0.56757816  0.56470339  0.04407270     0.99500
C620        C  0.06136242  0.93921926  0.08353161     1.00200
N621        N  0.48551969  0.55690536  0.28402998    -0.05000
N622        N  0.48347145  0.58780361  0.29204151    -0.61300
N623        N  0.49180198  0.02952300  0.29643102    -0.03800
N624        N  0.47650877  0.04228494  0.32755216    -0.62000
N625        N  0.03058453  0.49966877  0.24041351    -0.04500
N626        N  0.05042805  0.48279668  0.25349827    -0.61600
N627        N  0.45348688  0.53064523  0.26498723    -0.03400
N628        N  0.42919068  0.54329462  0.26087654    -0.62200
Mn629      Mn  0.03684180  0.55433557  0.27444205     1.10700
C630        C  0.44817081  0.57867229  0.27836268     1.00700
C631        C  0.49991576  0.07900155  0.33359576     1.00800
N632        N  0.46952446  0.93140907  0.21331363    -0.04500
N633        N  0.46608358  0.89788956  0.21803759    -0.59900
N634        N  0.39888141  0.94890595  0.20236971    -0.03800
N635        N  0.36334452  0.93782914  0.20966941    -0.56600
N636        N  0.40234015  0.93108439  0.16451415    -0.05100
N637        N  0.36895752  0.90777682  0.14459294    -0.59400
N638        N  0.45828519  0.94127382  0.25260745    -0.04100
N639        N  0.44356690  0.91243695  0.28228308    -0.56600
Mn640      Mn  0.45920630  0.94637521  0.13996936     1.20200
Mn641      Mn  0.44804900  0.98985484  0.24643272     1.10100
Cl642      Cl  0.50550286  0.51511064  0.19868060    -0.84600
C643        C  0.44983393  0.88589405  0.26083390     0.97700
C644        C  0.34497977  0.91248409  0.17327300     0.97500
C645        C  0.12838970  0.84968410  0.30897810     0.31400
C646        C  0.13125717  0.85240373  0.41197164     0.31400
C647        C  0.11118634  0.87253411  0.33408961    -0.04800
C648        C  0.10806495  0.81163976  0.33566083    -0.05600
C649        C  0.16756728  0.86744907  0.33510513    -0.05500
C650        C  0.11266136  0.87361266  0.38575990    -0.04800
C651        C  0.10972007  0.81388221  0.38711766    -0.05600
C652        C  0.16844337  0.86840359  0.38648615    -0.05500
C653        C  0.09381617  0.89253488  0.40011238    -0.30900
N654        N  0.08176250  0.90422874  0.36007246     0.15600
C655        C  0.09185825  0.89175967  0.31967454    -0.30900
H656        H  0.08399481  0.89463949  0.28246320     0.17600
C657        C  0.08924092  0.77868897  0.40419367    -0.29800
N658        N  0.07529387  0.75428651  0.36581740     0.14400
C659        C  0.08649765  0.77371976  0.32359019    -0.29800
C660        C  0.20482470  0.88315698  0.40251775    -0.30100
N661        N  0.22665638  0.89163766  0.36318184     0.14900
H662        H  0.21418016  0.88623094  0.44033516     0.17500
C663        C  0.20436410  0.88239061  0.32195045    -0.30100
H664        H  0.21454539  0.88628300  0.28536814     0.17500
H665        H  0.07871751  0.76144404  0.28715171     0.17500
H666        H  0.08785892  0.89596814  0.43733094     0.17600
H667        H  0.08451039  0.77121947  0.44219046     0.17500
C668        C  0.15060822  0.82920996  0.06156260     0.31400
C669        C  0.15023947  0.83924113  0.16314405     0.31400
C670        C  0.14883719  0.86410955  0.07971261    -0.04800
C671        C  0.11808457  0.79807940  0.08921581    -0.05600
C672        C  0.18501360  0.83255703  0.09168018    -0.05500
C673        C  0.14942543  0.86949863  0.13090021    -0.04800
C674        C  0.11771188  0.80380920  0.14038208    -0.05600
C675        C  0.18437777  0.83732061  0.14286244    -0.05500
C676        C  0.14008032  0.89707899  0.13858463    -0.30900
N677        N  0.13341526  0.90810635  0.09456549     0.15600
C678        C  0.13800534  0.88802905  0.05843121    -0.30900
H679        H  0.13122577  0.88885672  0.02007330     0.17600
C680        C  0.10068326  0.76934536  0.16075031    -0.29800
N681        N  0.09097180  0.74274833  0.12537813     0.14400
C682        C  0.10196344  0.75978294  0.08217058    -0.29800
C683        C  0.22067476  0.85219576  0.16080273    -0.30100
N684        N  0.24356769  0.85661793  0.12356137     0.14900
H685        H  0.22966779  0.86143299  0.19821339     0.17500
C686        C  0.22220458  0.84525339  0.08132723    -0.30100
H687        H  0.23332456  0.84884872  0.04526247     0.17500
H688        H  0.10325020  0.74573987  0.04922328     0.17500
H689        H  0.13481075  0.90592957  0.17341349     0.17600
H690        H  0.10186571  0.76474700  0.19946703     0.17500
C691        C  0.12672773  0.84798564  0.25074278    -0.15100
C692        C  0.15071636  0.84248344  0.22117646    -0.30200
H693        H  0.10492631  0.85204018  0.23258082     0.14000
H694        H  0.17172052  0.83765678  0.23996026     0.14500
C695        C  0.13383422  0.85284860  0.47008202    -0.15100
C696        C  0.14964645  0.83533100  0.49817400    -0.30200
H697        H  0.12253924  0.86841781  0.48848432     0.14000
H698        H  0.12084076  0.79758218  0.99075657     0.14500
C699        C  0.08194086  0.70475033  0.13388422    -0.15100
C700        C  0.07076478  0.68951342  0.17753136    -0.30200
H701        H  0.08688610  0.68920095  0.10534686     0.14000
H702        H  0.06393715  0.70383962  0.20560304     0.14500
C703        C  0.30381129  0.89353654  0.16710597    -0.15100
C704        C  0.28402991  0.87370923  0.12700884    -0.30200
H705        H  0.28957495  0.89789926  0.19704669     0.14000
H706        H  0.29873496  0.87133348  0.09597390     0.14500
C707        C  0.08063613  0.91726431  0.07634193    -0.15100
C708        C  0.11698995  0.93182608  0.08913404    -0.30200
H709        H  0.06453506  0.88813751  0.06452079     0.14000
H710        H  0.13261875  0.96024889  0.10377793     0.14500
C711        C  0.05135780  0.71501618  0.37316957    -0.15100
C712        C  0.05050060  0.68748582  0.34495354    -0.30200
H713        H  0.03727915  0.70754303  0.40761220     0.14000
H714        H  0.06486216  0.69377662  0.31081810     0.14500
C715        C  0.28686005  0.91950896  0.40614487    -0.15100
C716        C  0.26645336  0.90551832  0.36452615    -0.30200
H717        H  0.27404164  0.92251893  0.43863463     0.14000
H718        H  0.27975211  0.90368596  0.33165622     0.14500
C719        C  0.06358241  0.95443173  0.35077835    -0.15100
C720        C  0.05502413  0.91859117  0.36153790    -0.30200
H721        H  0.09141183  0.97309609  0.33856926     0.14000
H722        H  0.02795740  0.90064382  0.37648454     0.14500
C723        C  0.48459007  0.10416105  0.33810305    -0.17500
C724        C  0.46110453  0.11218139  0.35001280     0.06900
C725        C  0.46548447  0.39367590  0.29854448     0.08800
C726        C  0.45142404  0.41361665  0.30344282    -0.18000
C727        C  0.59938033  0.55784553  0.04474860    -0.17100
C728        C  0.61634485  0.54047488  0.05126387     0.06900
C729        C  0.38286418  0.96454948  0.05267980     0.08800
C730        C  0.40279534  0.95014028  0.05382828    -0.18000
C731        C  0.43478401  0.60597008  0.27435889    -0.15100
C732        C  0.41013159  0.60309799  0.23879935    -0.30200
H733        H  0.44624554  0.62952870  0.30009164     0.14000
H734        H  0.40139220  0.58159455  0.21027360     0.14500
C735        C  0.42469612  0.82059018  0.23408032    -0.15100
C736        C  0.42844969  0.84519266  0.27005916    -0.30200
H737        H  0.43780959  0.83114605  0.19958729     0.14000
H738        H  0.41413138  0.83564207  0.30398074     0.14500
C739        C  0.19510701  0.60057966  0.27803971    -0.15100
C740        C  0.21595869  0.60869593  0.23797101    -0.30200
H741        H  0.20714599  0.61351408  0.31340496     0.14000
H742        H  0.20271441  0.59634051  0.20267396     0.14500
C743        C  0.39486047  0.58839429  0.50061533    -0.15100
C744        C  0.39270565  0.56482346  0.53625426    -0.30200
H745        H  0.41748948  0.59784547  0.47537052     0.14000
H746        H  0.36850991  0.55268407  0.55890960     0.14500
C747        C  0.40368442  0.79557831  0.50050360    -0.15100
C748        C  0.41508640  0.81712266  0.46147983    -0.30200
H749        H  0.39760720  0.81022492  0.99138916     0.14000
H750        H  0.42253971  0.80735833  0.42894438     0.14500
C751        C  0.21049388  0.65225545  0.47035878    -0.15100
C752        C  0.18885640  0.63443648  0.43076760    -0.30200
H753        H  0.18861130  0.57901467  0.98396765     0.14000
H754        H  0.20036939  0.62676189  0.40041229     0.14500
C755        C  0.33653922  0.66194194  0.37874110    -0.15100
C756        C  0.35833618  0.68776065  0.34531742    -0.30200
H757        H  0.31398404  0.63588862  0.36388558     0.14000
H758        H  0.38199550  0.71304310  0.35938107     0.14500
C759        C  0.33674180  0.65531090  0.09038255    -0.15100
C760        C  0.35083886  0.68403087  0.12544635    -0.30200
H761        H  0.32216050  0.62715865  0.10419491     0.14000
H762        H  0.36582221  0.71184308  0.11142908     0.14500
C763        C  0.33271365  0.66359180  0.53783760     0.31400
C764        C  0.34649460  0.65435202  0.93049316     0.31400
C765        C  0.33527133  0.63062536  0.51366016    -0.04800
C766        C  0.30080712  0.66414766  0.50781307    -0.05600
C767        C  0.36762991  0.69752700  0.51815696    -0.05500
C768        C  0.36575698  0.63651937  0.96178451    -0.04800
C769        C  0.30710551  0.63504682  0.94956691    -0.05600
C770        C  0.36301471  0.69316862  0.95395891    -0.05500
C771        C  0.38605126  0.61834025  0.95227051    -0.30900
N772        N  0.39512107  0.60673667  0.99466277     0.15600
C773        C  0.35316715  0.61150556  0.53177704    -0.30900
H774        H  0.35990306  0.60997829  0.56992284     0.17600
C775        C  0.27227694  0.61503807  0.92724650    -0.29800
N776        N  0.24629500  0.60360615  0.96176978     0.14400
C777        C  0.26682268  0.66144369  0.51771292    -0.29800
C778        C  0.37888512  0.72787787  0.93421672    -0.30100
N779        N  0.39537511  0.75720187  0.49729623     0.14900
H780        H  0.38363706  0.73336651  0.89595277     0.17500
C781        C  0.38452764  0.73404701  0.53530220    -0.30100
H782        H  0.38447505  0.74333296  0.57220260     0.17500
H783        H  0.25522905  0.65871304  0.55338747     0.17500
H784        H  0.39440919  0.61488235  0.91671694     0.17600
H785        H  0.26657203  0.60961285  0.88841209     0.17500
C786        C  0.33163316  0.67027750  0.78533053     0.31400
C787        C  0.33065458  0.68070511  0.68488590     0.31400
C788        C  0.35502590  0.65746883  0.75467542    -0.04800
C789        C  0.29285216  0.65013205  0.75813160    -0.05600
C790        C  0.34519499  0.71084992  0.76816433    -0.05500
C791        C  0.35536671  0.66445208  0.70448562    -0.04800
C792        C  0.29257564  0.65493509  0.70682064    -0.05600
C793        C  0.34429427  0.71603070  0.71764174    -0.05500
C794        C  0.37289750  0.64746968  0.68200943    -0.30900
N795        N  0.38105566  0.62788907  0.71532906     0.15600
C796        C  0.36962054  0.63291320  0.75951801    -0.30900
H797        H  0.36984996  0.61770488  0.79155914     0.17600
C798        C  0.25769883  0.65037422  0.69365837    -0.29800
N799        N  0.23661973  0.64242898  0.73349633     0.14400
C800        C  0.25787938  0.64299024  0.77305881    -0.29800
C801        C  0.35508114  0.75337642  0.71098732    -0.30100
N802        N  0.36225780  0.77090311  0.75548922     0.14900
H803        H  0.35887266  0.76714870  0.67633000     0.17500
C804        C  0.35678019  0.74537662  0.79039767    -0.30100
H805        H  0.36132337  0.75172066  0.82911992     0.17500
H806        H  0.24948869  0.64059491  0.81048125     0.17500
H807        H  0.37708387  0.64714104  0.64343209     0.17600
H808        H  0.24908200  0.65511818  0.65773369     0.17500
N809        N  0.09189551  0.53942994  0.91340520    -0.04700
N810        N  0.12517055  0.55290013  0.93534348    -0.56900
N811        N  0.04941688  0.57207463  0.84823281    -0.04400
N812        N  0.05982799  0.60334410  0.82476969    -0.59000
N813        N  0.04805166  0.57788570  0.89524831    -0.04000
N814        N  0.05872323  0.61345757  0.90475067    -0.56800
N815        N  0.09237016  0.53149350  0.86749420    -0.03700
N816        N  0.12725761  0.54039338  0.85661415    -0.59300
C817        C  0.14726458  0.55310892  0.90003247     0.97400
C818        C  0.06517557  0.62873432  0.85993271     0.97200
N819        N  0.48200680  0.01275847  0.85482267    -0.04900
N820        N  0.45878401  0.02613404  0.86451578    -0.57400
N821        N  0.02988988  0.95101686  0.82998626    -0.03000
N822        N  0.05883100  0.94746726  0.81615401    -0.58700
N823        N  0.00475375  0.91938448  0.84797066    -0.05000
N824        N  0.01550443  0.89377136  0.84602217    -0.57700
N825        N  0.98793230  0.50344096  0.86176336    -0.02700
N826        N  0.97741557  0.52943421  0.87015307    -0.58800
Mn827      Mn  0.03988427  0.51644682  0.82123627     1.18400
C828        C  0.43631834  0.50922790  0.88296995     0.99500
C829        C  0.04911275  0.91150092  0.82595192     1.00200
N830        N  0.48149536  0.52997696  0.97801077    -0.05000
N831        N  0.47197540  0.55646338  0.98594208    -0.61300
N832        N  0.47900635  0.96278430  0.48559972    -0.03800
N833        N  0.48566106  0.93511871  0.47178784    -0.62000
N834        N  0.04896750  0.53810725  0.49822375    -0.04500
N835        N  0.07930578  0.53715451  0.48425720    -0.61600
N836        N  0.45376951  0.49680377  0.98808660    -0.03400
N837        N  0.42471396  0.50056949  0.00179881    -0.62200
Mn838      Mn  0.04213918  0.53318449  0.94390609     1.10700
C839        C  0.43648215  0.53803186  0.00133818     1.00700
C840        C  0.52179789  0.95147846  0.46126408     1.00800
N841        N  0.44314867  0.90229913  0.87326392    -0.04500
N842        N  0.43874494  0.86808806  0.86604858    -0.59900
N843        N  0.40304293  0.95748052  0.88307237    -0.03800
N844        N  0.36983219  0.95540193  0.88399046    -0.56600
N845        N  0.41065816  0.95239645  0.83853084    -0.05100
N846        N  0.38290527  0.94763916  0.80797391    -0.59400
N847        N  0.43079015  0.90419322  0.91606952    -0.04100
N848        N  0.41865961  0.87244229  0.93941645    -0.56600
Mn849      Mn  0.46444619  0.95333637  0.82549119     1.20200
Mn850      Mn  0.43776979  0.95646804  0.94409031     1.10100
Cl851      Cl  0.49489977  0.47942970  0.89586340    -0.84600
C852        C  0.42362773  0.84987953  0.90803564     0.97700
C853        C  0.35752241  0.94949059  0.83664980     0.97500
N854        N  0.08063345  0.58075334  0.73324790    -0.04700
N855        N  0.10824782  0.60875588  0.75884988    -0.56900
N856        N  0.07599125  0.57512377  0.61670171    -0.04400
N857        N  0.10239263  0.60055652  0.58926452    -0.59000
N858        N  0.05443206  0.58882089  0.63077095    -0.04000
N859        N  0.06344362  0.62111354  0.61127806    -0.56800
N860        N  0.09219962  0.55719919  0.71978683    -0.03700
N861        N  0.12594579  0.56715537  0.73787757    -0.59300
C862        C  0.13586806  0.59909435  0.76294260     0.97400
C863        C  0.09362401  0.62911493  0.58573478     0.97200
N864        N  0.51242544  0.95838089  0.58687018    -0.04900
N865        N  0.52110884  0.93302061  0.57061021    -0.57400
N866        N  0.04651346  0.96019131  0.70468322    -0.03000
N867        N  0.07377724  0.95137054  0.70889905    -0.58700
N868        N  0.01383321  0.92944122  0.70101120    -0.05000
N869        N  0.01897209  0.89973684  0.70379379    -0.57700
N870        N  0.04935591  0.48334853  0.59464031    -0.02700
N871        N  0.07472319  0.47560562  0.57723379    -0.58800
Mn872      Mn  0.07034227  0.52286910  0.65520663     1.18400
C873        C  0.55382511  0.43165261  0.57915668     0.99500
C874        C  0.05642721  0.91365912  0.70899093     1.00200
N875        N  0.47344719  0.56716929  0.66224430    -0.05000
N876        N  0.46821967  0.59619045  0.65373376    -0.61300
N877        N  0.43874278  0.01851961  0.75646433    -0.03800
N878        N  0.41141373  0.02306447  0.77472311    -0.62000
N879        N  0.99488400  0.56327959  0.76374317    -0.04500
N880        N  0.99258152  0.59164618  0.78416024    -0.61600
N881        N  0.44105515  0.53670630  0.66583389    -0.03400
N882        N  0.41351337  0.54500495  0.66132989    -0.62200
Mn883      Mn  0.02731971  0.57594621  0.69837310     1.10700
C884        C  0.43080977  0.58205924  0.65297429     1.00700
C885        C  0.42744961  0.05944450  0.78731559     1.00800
N886        N  0.43897367  0.91747802  0.70758288    -0.04500
N887        N  0.42803196  0.88345731  0.72295222    -0.59900
N888        N  0.40759839  0.95602315  0.61949982    -0.03800
N889        N  0.37349064  0.94478539  0.60184008    -0.56600
N890        N  0.42044196  0.93345503  0.60582161    -0.05100
N891        N  0.39290777  0.90457943  0.58100966    -0.59400
N892        N  0.41616357  0.93006245  0.72032577    -0.04100
N893        N  0.38739602  0.90260420  0.74201835    -0.56600
Mn894      Mn  0.47283846  0.93800541  0.64557742     1.20200
Mn895      Mn  0.42337345  0.98482232  0.68881704     1.10100
Cl896      Cl  0.50269641  0.50398339  0.68442882    -0.84600
C897        C  0.39611124  0.87429250  0.74521736     0.97700
C898        C  0.36379258  0.91244784  0.57815575     0.97500
C899        C  0.16143481  0.82209738  0.80882985     0.31400
C900        C  0.16714601  0.83270420  0.91175288     0.31400
C901        C  0.13419135  0.83308647  0.83280795    -0.04800
C902        C  0.15540527  0.78830440  0.84064839    -0.05600
C903        C  0.19920223  0.85321101  0.83098153    -0.05500
C904        C  0.13681145  0.83793383  0.88411436    -0.04800
C905        C  0.15914644  0.79406416  0.89229490    -0.05600
C906        C  0.20142887  0.85821284  0.88242520    -0.05500
C907        C  0.11170906  0.84954401  0.89657171    -0.30900
N908        N  0.09468538  0.85258944  0.85490866     0.15600
C909        C  0.10777555  0.84249553  0.81598238    -0.30900
H910        H  0.09891526  0.84252432  0.77842181     0.17600
C911        C  0.14146460  0.75951920  0.91277151    -0.29800
N912        N  0.12702520  0.73311188  0.87672797     0.14400
C913        C  0.13492324  0.75021507  0.83276226    -0.29800
C914        C  0.23567841  0.88764518  0.89478558    -0.30100
N915        N  0.25477559  0.90073713  0.85370807     0.14900
H916        H  0.24653676  0.89857340  0.93127130     0.17500
C917        C  0.23305990  0.88037282  0.81445141    -0.30100
H918        H  0.24137148  0.88554916  0.77708226     0.17500
H919        H  0.12424193  0.73657308  0.79748894     0.17500
H920        H  0.10737247  0.85700022  0.93283893     0.17600
H921        H  0.13643631  0.75397998  0.95115974     0.17500
C922        C  0.15482848  0.83353371  0.55593846     0.31400
C923        C  0.16877447  0.82647336  0.65620736     0.31400
C924        C  0.13894694  0.85072680  0.59340201    -0.04800
C925        C  0.14015929  0.79329722  0.57533730    -0.05600
C926        C  0.19626331  0.85062831  0.57415070    -0.05500
C927        C  0.14611860  0.84683717  0.64322663    -0.04800
C928        C  0.14713669  0.78940294  0.62544969    -0.05600
C929        C  0.20338333  0.84726026  0.62403794    -0.05500
C930        C  0.13021781  0.86366742  0.67042043    -0.30900
N931        N  0.11330329  0.87751233  0.63973807     0.15600
C932        C  0.11876792  0.87027488  0.59292880    -0.30900
H933        H  0.10850231  0.87872338  0.56123710     0.17600
C934        C  0.13906060  0.75235394  0.63053542    -0.29800
N935        N  0.12754934  0.73404606  0.58622535     0.14400
C936        C  0.12773295  0.75871492  0.55288652    -0.29800
C937        C  0.24165900  0.86028826  0.62976372    -0.30100
N938        N  0.25769913  0.87090113  0.58567122     0.14900
H939        H  0.25693912  0.86257519  0.66380592     0.17500
C940        C  0.23029297  0.86557323  0.55190675    -0.30100
H941        H  0.23495770  0.87256172  0.51387660     0.17500
H942        H  0.11944226  0.75193846  0.51465316     0.17500
H943        H  0.13201614  0.86682263  0.70969375     0.17600
H944        H  0.14106946  0.73954983  0.66423884     0.17500
C945        C  0.15349873  0.81464181  0.75100680    -0.15100
C946        C  0.17831223  0.82661665  0.71331310    -0.30200
H947        H  0.12408493  0.79944234  0.73972098     0.14000
H948        H  0.20771078  0.84009334  0.72372079     0.14500
C949        C  0.17203364  0.84086805  0.96921397    -0.15100
C950        C  0.14676630  0.82125987  0.00416898    -0.30200
H951        H  0.19793916  0.86447788  0.98258638     0.14000
H952        H  0.16112323  0.82065033  0.47755242     0.14500
C953        C  0.10589901  0.69398553  0.57908988    -0.15100
C954        C  0.12008493  0.66972275  0.57873631    -0.30200
H955        H  0.07571561  0.68272772  0.57663311     0.14000
H956        H  0.15004976  0.67988127  0.57929024     0.14500
C957        C  0.32306887  0.88424430  0.57340363    -0.15100
C958        C  0.29702503  0.89566618  0.57943766    -0.30200
H959        H  0.31460009  0.85471066  0.56945015     0.14000
H960        H  0.30608968  0.92539857  0.58260092     0.14500
C961        C  0.07526707  0.89172519  0.69495838    -0.15100
C962        C  0.09498853  0.89879833  0.65396586    -0.30200
H963        H  0.07092985  0.86799333  0.71690857     0.14000
H964        H  0.09606512  0.92031909  0.62977644     0.14500
C965        C  0.10417576  0.69408819  0.88619607    -0.15100
C966        C  0.08536165  0.66881486  0.85057477    -0.30200
H967        H  0.10270910  0.68496149  0.92368539     0.14000
H968        H  0.08671837  0.67704886  0.81284787     0.14500
C969        C  0.31741142  0.93123263  0.82266403    -0.15100
C970        C  0.29303699  0.92951166  0.85543962    -0.30200
H971        H  0.30784699  0.91464616  0.78899070     0.14000
H972        H  0.30372206  0.94603938  0.88916363     0.14500
C973        C  0.07468045  0.89575210  0.82489269    -0.15100
C974        C  0.06873548  0.86664010  0.85284143    -0.30200
H975        H  0.09945507  0.90903707  0.80336147     0.14000
H976        H  0.04595282  0.85554102  0.87790518     0.14500
C977        C  0.41102002  0.07646211  0.81664473    -0.17500
C978        C  0.41808331  0.09390968  0.85434065     0.06900
C979        C  0.40426709  0.54961433  0.88762872     0.08800
C980        C  0.41229739  0.52501410  0.89225335    -0.18000
C981        C  0.56916307  0.41380912  0.54936347    -0.17100
C982        C  0.58690936  0.42125659  0.51326339     0.06900
C983        C  0.56399830  0.92132629  0.46567891     0.08800
C984        C  0.54217874  0.93175088  0.45280120    -0.18000
C985        C  0.41420591  0.60609923  0.66342237    -0.15100
C986        C  0.39499879  0.60238614  0.70400209    -0.30200
H987        H  0.42176636  0.62994520  0.64020531     0.14000
H988        H  0.39082961  0.58049966  0.72951584     0.14500
C989        C  0.38327563  0.81076116  0.76331992    -0.15100
C990        C  0.36947475  0.83425123  0.75257341    -0.30200
H991        H  0.41275513  0.82235325  0.77384762     0.14000
H992        H  0.33989051  0.82348396  0.74367449     0.14500
C993        C  0.17612015  0.62586086  0.76981081    -0.15100
C994        C  0.19754737  0.63249465  0.73072842    -0.30200
H995        H  0.18837461  0.63277602  0.80663534     0.14000
H996        H  0.18363512  0.62534579  0.69464203     0.14500
C997        C  0.42137153  0.59179864  0.99803879    -0.15100
C998        C  0.41100797  0.55530106  0.00715380    -0.30200
H999        H  0.44956602  0.60957361  0.98623718     0.14000
H1000       H  0.38222897  0.53685181  0.01619571     0.14500
C1001       C  0.39928883  0.79340641  0.96171091    -0.15100
C1002       C  0.41285972  0.81002884  0.91824032    -0.30200
H1003       H  0.39743351  0.80596699  0.53361037     0.14000
H1004       H  0.41612716  0.79424742  0.88870158     0.14500
C1005       C  0.20592047  0.58334853  0.95282517    -0.15100
C1006       C  0.18879072  0.57066672  0.90771843    -0.30200
H1007       H  0.19813340  0.65761536  0.50191319     0.14000
H1008       H  0.20504660  0.57385981  0.87590168     0.14500
C1009       C  0.34882538  0.65390901  0.87354788    -0.15100
C1010       C  0.33071652  0.66695905  0.84235780    -0.30200
H1011       H  0.36645043  0.64361252  0.85893809     0.14000
H1012       H  0.31376549  0.67741740  0.85941561     0.14500
C1013       C  0.32720607  0.65935192  0.59430487    -0.15100
C1014       C  0.33071074  0.68589765  0.62820383    -0.30200
H1015       H  0.32045747  0.63206745  0.60825688     0.14000
H1016       H  0.33555403  0.71287367  0.61552831     0.14500
C1017       C  0.83283552  0.14855459  0.03061347     0.31400
C1018       C  0.83256235  0.18587513  0.43042292     0.31400
C1019       C  0.85640209  0.13392007  0.00462877    -0.04800
C1020       C  0.79476434  0.12648823  0.00257473    -0.05600
C1021       C  0.84812825  0.18815336  0.00872815    -0.05500
C1022       C  0.84005006  0.15666666  0.45640874    -0.04800
C1023       C  0.79357758  0.17624052  0.44831873    -0.05600
C1024       C  0.85759149  0.22081595  0.46229067    -0.05500
C1025       C  0.85748725  0.13611642  0.44487041    -0.30900
N1026       N  0.86209866  0.12033433  0.48627545     0.15600
C1027       C  0.87881478  0.11844914  0.01850522    -0.30900
H1028       H  0.88479660  0.11295023  0.05545196     0.17600
C1029       C  0.75860438  0.15264874  0.42793287    -0.29800
N1030       N  0.73427139  0.13758084  0.46412139     0.14400
C1031       C  0.75867061  0.10143795  0.01451493    -0.29800
C1032       C  0.88636273  0.25528909  0.45279774    -0.30100
N1033       N  0.89120480  0.24474498  0.98557325     0.14900
H1034       H  0.89691491  0.26604091  0.41735081     0.17500
C1035       C  0.87661450  0.22291311  0.02454324    -0.30100
H1036       H  0.88867923  0.23095239  0.06120733     0.17500
H1037       H  0.74905270  0.09248795  0.05085314     0.17500
H1038       H  0.86864231  0.13509768  0.40993722     0.17600
H1039       H  0.75206741  0.14421295  0.38978116     0.17500
C1040       C  0.83070358  0.17039005  0.27999282     0.31400
C1041       C  0.83571068  0.16914791  0.17807900     0.31400
C1042       C  0.85486671  0.15395788  0.25910674    -0.04800
C1043       C  0.79394876  0.14809562  0.24897041    -0.05600
C1044       C  0.84765722  0.20915541  0.25457968    -0.05500
C1045       C  0.85740037  0.15355893  0.20786655    -0.04800
C1046       C  0.79689251  0.14748149  0.19808245    -0.05600
C1047       C  0.84987536  0.20751245  0.20342459    -0.05500
C1048       C  0.87924533  0.13750309  0.19743034    -0.30900
N1049       N  0.89029935  0.12824376  0.24019417     0.15600
C1050       C  0.87583709  0.13827616  0.27790769    -0.30900
H1051       H  0.87981638  0.13388708  0.31610488     0.17600
C1052       C  0.76183898  0.12652249  0.17761605    -0.29800
N1053       N  0.73739461  0.11467816  0.21393959     0.14400
C1054       C  0.75640732  0.12748088  0.25767941    -0.29800
C1055       C  0.86503015  0.24302766  0.18635147    -0.30100
N1056       N  0.87235008  0.26716339  0.22425842     0.14900
H1057       H  0.86953599  0.25065502  0.14853992     0.17500
C1058       C  0.86146611  0.24703417  0.26604563    -0.30100
H1059       H  0.86326767  0.25924094  0.30177833     0.17500
H1060       H  0.74391854  0.12236601  0.29297471     0.17500
H1061       H  0.88663006  0.13298866  0.16138412     0.17600
H1062       H  0.75439873  0.12105723  0.13900089     0.17500
N1063       N  0.57770220  0.06284950  0.49660750    -0.04700
N1064       N  0.60945332  0.07377018  0.52156393    -0.56900
N1065       N  0.54852547  0.10099356  0.41845115    -0.04400
N1066       N  0.56351020  0.13309676  0.39617436    -0.59000
N1067       N  0.54030887  0.10470879  0.46322516    -0.04000
N1068       N  0.54967382  0.13984043  0.47306844    -0.56800
N1069       N  0.58156268  0.05717743  0.45058704    -0.03700
N1070       N  0.61604550  0.06494861  0.44240920    -0.59300
C1071       C  0.63305530  0.07510847  0.48717804     0.97400
C1072       C  0.56348307  0.15684566  0.43051870     0.97200
N1073       N  0.95051409  0.48607430  0.35874987    -0.04900
N1074       N  0.92662995  0.45587588  0.33346788    -0.57400
N1075       N  0.54246825  0.48963197  0.38408090    -0.03000
N1076       N  0.57157770  0.48721943  0.36824527    -0.58700
N1077       N  0.51485619  0.45605640  0.39346175    -0.05000
N1078       N  0.52548587  0.43053011  0.38586480    -0.57700
N1079       N  0.47389200  0.03291368  0.42296723    -0.02700
N1080       N  0.46766743  0.06111789  0.43399736    -0.58800
Mn1081     Mn  0.53053816  0.04032170  0.39738604     1.18400
C1082       C  0.89497578  0.03075123  0.33455505     0.99500
C1083       C  0.56064932  0.45016633  0.36969210     1.00200
N1084       N  0.96277009  0.07031279  0.53164704    -0.05000
N1085       N  0.94796286  0.09281694  0.53038917    -0.61300
N1086       N  0.01788743  0.45961943  0.00151090    -0.03800
N1087       N  0.03140399  0.43773522  0.01845661    -0.62000
N1088       N  0.49054592  0.97831923  0.02451868    -0.04500
N1089       N  0.46947068  0.98042181  0.05831016    -0.61600
N1090       N  0.93678857  0.03578072  0.54021950    -0.03400
N1091       N  0.90415283  0.03477245  0.54483265    -0.62200
Mn1092     Mn  0.51722214  0.05057317  0.51147043     1.10700
C1093       C  0.91165032  0.07043302  0.53899935     1.00700
C1094       C  0.06663583  0.45220201  0.00130603     1.00800
N1095       N  0.96234307  0.42425004  0.47579901    -0.04500
N1096       N  0.95603928  0.38946932  0.47272677    -0.59900
N1097       N  0.91314083  0.46983603  0.48731367    -0.03800
N1098       N  0.88044688  0.46818624  0.49476441    -0.56600
N1099       N  0.91243609  0.45581390  0.44415725    -0.05100
N1100       N  0.88041896  0.44537528  0.42036547    -0.59400
N1101       N  0.95859307  0.43319877  0.52037661    -0.04100
N1102       N  0.94959273  0.40415213  0.54864816    -0.56600
Mn1103     Mn  0.96074262  0.45732569  0.41611975     1.20200
Mn1104     Mn  0.96427050  0.48962223  0.53524935     1.10100
Cl1105     Cl  0.97579861  0.02480117  0.45094531    -0.84600
C1106       C  0.94880017  0.37736774  0.51883607     0.97700
C1107       C  0.86068205  0.45327994  0.45209285     0.97500
N1108       N  0.58234283  0.08053194  0.20720700    -0.04700
N1109       N  0.61079510  0.09203238  0.23921221    -0.56900
N1110       N  0.55076653  0.10181629  0.10332432    -0.04400
N1111       N  0.56593360  0.13058449  0.07393867    -0.59000
N1112       N  0.53920792  0.11070206  0.14290707    -0.04000
N1113       N  0.54634181  0.14565512  0.14134476    -0.56800
N1114       N  0.58854620  0.06609708  0.16817650    -0.03700
N1115       N  0.62138070  0.06740244  0.17209707    -0.59300
C1116       C  0.63489940  0.08355816  0.21669566     0.97400
C1117       C  0.56307239  0.15802732  0.09857840     0.97200
N1118       N  0.02498404  0.52880049  0.07492351    -0.04900
N1119       N  0.04335633  0.52866643  0.03665599    -0.57400
N1120       N  0.56076050  0.49780380  0.13930143    -0.03000
N1121       N  0.58430172  0.48472037  0.14823449    -0.58700
N1122       N  0.52850789  0.47072602  0.12139234    -0.05000
N1123       N  0.52986484  0.43905392  0.11770246    -0.57700
N1124       N  0.48357334  0.03308245  0.12205408    -0.02700
N1125       N  0.46699743  0.05263330  0.10644355    -0.58800
Mn1126     Mn  0.54260209  0.04255713  0.10706699     1.18400
C1127       C  0.97449442  0.05962401  0.12558080     0.99500
C1128       C  0.56486910  0.44834963  0.13416638     1.00200
N1129       N  0.96857327  0.04418714  0.23611330    -0.05000
N1130       N  0.96504141  0.07483978  0.23668590    -0.61300
N1131       N  0.00075209  0.47711448  0.21362920    -0.03800
N1132       N  0.00202817  0.44532809  0.20772029    -0.62000
N1133       N  0.52342289  0.05813437  0.28328119    -0.04500
N1134       N  0.53064111  0.08842998  0.30896649    -0.61600
N1135       N  0.93769822  0.01522951  0.21838862    -0.03400
N1136       N  0.91314271  0.02615638  0.20504080    -0.62200
Mn1137     Mn  0.52822967  0.07895862  0.21201407     1.10700
C1138       C  0.92991496  0.06274668  0.21776100     1.00700
C1139       C  0.03191053  0.44817375  0.23310723     1.00800
N1140       N  0.94771649  0.42004432  0.14517761    -0.04500
N1141       N  0.94000704  0.38522107  0.13500264    -0.59900
N1142       N  0.92452907  0.48710290  0.15045888    -0.03800
N1143       N  0.88993008  0.48133042  0.14624108    -0.56600
N1144       N  0.93540842  0.48085325  0.10839869    -0.05100
N1145       N  0.90635779  0.46721141  0.07646423    -0.59400
N1146       N  0.93018229  0.42077440  0.18435031    -0.04100
N1147       N  0.91055562  0.38698710  0.20168376    -0.56600
Mn1148     Mn  0.98688918  0.47455480  0.11056020     1.20200
Mn1149     Mn  0.94248631  0.47366912  0.22017664     1.10100
Cl1150     Cl  0.99431258  0.99583077  0.16554544    -0.84600
C1151       C  0.91692015  0.36505675  0.17079993     0.97700
C1152       C  0.87831175  0.46879572  0.10014265     0.97500
C1153       C  0.66694553  0.34996480  0.33273599     0.31400
C1154       C  0.66705303  0.34985795  0.43575721     0.31400
C1155       C  0.64589358  0.36819294  0.35788844    -0.04800
C1156       C  0.64925586  0.31152986  0.35762038    -0.05600
C1157       C  0.70579885  0.37055303  0.36061475    -0.05500
C1158       C  0.64585093  0.36780520  0.40941440    -0.04800
C1159       C  0.65039309  0.31177765  0.40919859    -0.05600
C1160       C  0.70470991  0.36992364  0.41207270    -0.05500
C1161       C  0.62210480  0.38088155  0.42343191    -0.30900
N1162       N  0.60870137  0.39037330  0.38294158     0.15600
C1163       C  0.62281617  0.38268764  0.34277945    -0.30900
H1164       H  0.61524550  0.38554937  0.30542117     0.17600
C1165       C  0.63450285  0.27548550  0.42291558    -0.29800
N1166       N  0.62058968  0.25312850  0.38266871     0.14400
C1167       C  0.63005015  0.27449807  0.34235039    -0.29800
C1168       C  0.74005728  0.39009442  0.43124895    -0.30100
N1169       N  0.76355908  0.40382478  0.39421425     0.14900
H1170       H  0.74796600  0.39406035  0.46965460     0.17500
C1171       C  0.74341065  0.39206340  0.35099296    -0.30100
H1172       H  0.75564937  0.39939023  0.31571643     0.17500
H1173       H  0.62267284  0.26392366  0.30506068     0.17500
H1174       H  0.61423557  0.38225690  0.46035954     0.17600
H1175       H  0.63395587  0.26523824  0.45906647     0.17500
C1176       C  0.67213038  0.35776580  0.08126093     0.31400
C1177       C  0.68279885  0.35741471  0.18306613     0.31400
C1178       C  0.65654367  0.37809198  0.11313942    -0.04800
C1179       C  0.65502136  0.31935638  0.10534200    -0.05600
C1180       C  0.71329007  0.37570473  0.10113521    -0.05500
C1181       C  0.66237750  0.37822914  0.16401198    -0.04800
C1182       C  0.66031435  0.31916566  0.15648398    -0.05600
C1183       C  0.71835396  0.37536939  0.15241151    -0.05500
C1184       C  0.64708855  0.39816947  0.18490470    -0.30900
N1185       N  0.63120582  0.40902588  0.14875620     0.15600
C1186       C  0.63675047  0.39711529  0.10495041    -0.30900
H1187       H  0.62751533  0.40251908  0.06986409     0.17600
C1188       C  0.64069487  0.28265363  0.17009366    -0.29800
N1189       N  0.62413130  0.26093398  0.12946758     0.14400
C1190       C  0.63256601  0.28294539  0.08976450    -0.29800
C1191       C  0.75576920  0.39816563  0.16321379    -0.30100
N1192       N  0.77389903  0.41188053  0.12123738     0.14900
H1193       H  0.76870221  0.40628522  0.19952745     0.17500
C1194       C  0.74834443  0.39860761  0.08299116    -0.30100
H1195       H  0.75421181  0.40742281  0.04564452     0.17500
H1196       H  0.62181972  0.27347334  0.05281622     0.17500
H1197       H  0.64706781  0.40405131  0.22345151     0.17600
H1198       H  0.63764344  0.27261318  0.20707240     0.17500
C1199       C  0.66232070  0.34738881  0.27486049    -0.15100
C1200       C  0.68939392  0.35852990  0.24045521    -0.30200
H1201       H  0.63359950  0.33495952  0.26061143     0.14000
H1202       H  0.71806322  0.36986107  0.25344961     0.14500
C1203       C  0.67094859  0.35368704  0.49351121    -0.15100
C1204       C  0.65549425  0.32589321  0.52691275    -0.30200
H1205       H  0.68962964  0.38151862  0.50830392     0.14000
H1206       H  0.65123780  0.37497104  0.01272080     0.14500
C1207       C  0.59870619  0.22167576  0.13117531    -0.15100
C1208       C  0.58834024  0.19822121  0.09197733    -0.30200
H1209       H  0.58856586  0.21060439  0.16684602     0.14000
H1210       H  0.59995684  0.20800819  0.05657359     0.14500
C1211       C  0.83747165  0.44447874  0.08808853    -0.15100
C1212       C  0.81242043  0.44095249  0.12177427    -0.30200
H1213       H  0.82850786  0.42688455  0.05525189     0.14000
H1214       H  0.82267466  0.45813040  0.15498510     0.14500
C1215       C  0.58139422  0.42349880  0.13086031    -0.15100
C1216       C  0.61305367  0.43110994  0.15598899    -0.30200
H1217       H  0.56790958  0.39903926  0.10668308     0.14000
H1218       H  0.62501866  0.45384928  0.18302031     0.14500
C1219       C  0.59859528  0.21332814  0.38393879    -0.15100
C1220       C  0.58067239  0.19693084  0.42454522    -0.30200
H1221       H  0.59743625  0.19664558  0.35223134     0.14000
H1222       H  0.57991772  0.21331048  0.45536394     0.14500
C1223       C  0.82069797  0.44037564  0.44369713    -0.15100
C1224       C  0.80351619  0.42465866  0.40019372    -0.30200
H1225       H  0.80517023  0.44169592  0.47429382     0.14000
H1226       H  0.81998277  0.42550456  0.36935802     0.14500
C1227       C  0.58621082  0.43432541  0.36212632    -0.15100
C1228       C  0.58088974  0.40255099  0.38345368    -0.30200
H1229       H  0.61156702  0.45065744  0.34256660     0.14000
H1230       H  0.55734378  0.38812384  0.40684173     0.14500
C1231       C  0.02326093  0.41604564  0.26202895    -0.17500
C1232       C  0.99622656  0.39563643  0.28436561     0.06900
C1233       C  0.85503898  0.98480656  0.27304862     0.08800
C1234       C  0.86856851  0.01504146  0.29374091    -0.18000
C1235       C  0.98178983  0.09018005  0.09404547    -0.17100
C1236       C  0.00779842  0.11086621  0.07030078     0.06900
C1237       C  0.12122846  0.49797156  0.04822372     0.08800
C1238       C  0.09916263  0.46666257  0.03377042    -0.18000
C1239       C  0.91131238  0.08566582  0.21092250    -0.15100
C1240       C  0.91294461  0.11004331  0.24522723    -0.30200
H1241       H  0.89197052  0.07881601  0.17958898     0.14000
H1242       H  0.92910725  0.11381148  0.27912154     0.14500
C1243       C  0.88709794  0.30709041  0.21957180    -0.15100
C1244       C  0.90435020  0.32504669  0.17879271    -0.30200
H1245       H  0.88371104  0.32277078  0.24934086     0.14000
H1246       H  0.91000584  0.31030484  0.15010589     0.14500
C1247       C  0.67385616  0.09749992  0.23366245    -0.15100
C1248       C  0.69786875  0.09406675  0.20468957    -0.30200
H1249       H  0.68354560  0.11374194  0.26758342     0.14000
H1250       H  0.68785382  0.07918830  0.16973565     0.14500
C1251       C  0.88576129  0.10348398  0.49143177    -0.15100
C1252       C  0.88273808  0.08120308  0.52885509    -0.30200
H1253       H  0.90780940  0.11063761  0.46568905     0.14000
H1254       H  0.85913666  0.07118961  0.55246791     0.14500
C1255       C  0.92843490  0.31278550  0.49696643    -0.15100
C1256       C  0.92961500  0.33748353  0.53020997    -0.30200
H1257       H  0.92122125  0.30033674  0.01938446     0.14000
H1258       H  0.91258251  0.32838685  0.56207748     0.14500
C1259       C  0.69578139  0.11028898  0.45686067    -0.15100
C1260       C  0.67319399  0.09739662  0.49460832    -0.30200
H1261       H  0.68909654  0.04878265  0.92954686     0.14000
H1262       H  0.68331644  0.10613275  0.53189628     0.14500
C1263       C  0.83930411  0.19191733  0.37372246    -0.15100
C1264       C  0.82470756  0.16523925  0.33689130    -0.30200
H1265       H  0.85798011  0.22001773  0.36281442     0.14000
H1266       H  0.80768765  0.13660750  0.34812739     0.14500
C1267       C  0.83130816  0.14383856  0.08757961    -0.15100
C1268       C  0.83748690  0.17134389  0.12107861    -0.30200
H1269       H  0.82410932  0.11630926  0.10115129     0.14000
H1270       H  0.84134593  0.19729176  0.10633139     0.14500
C1271       C  0.82388104  0.18088540  0.53220183     0.31400
C1272       C  0.83303578  0.15214335  0.92867666     0.31400
C1273       C  0.83506631  0.15388448  0.50721604    -0.04800
C1274       C  0.78959641  0.17392548  0.49989935    -0.05600
C1275       C  0.85360977  0.21880255  0.51336584    -0.05500
C1276       C  0.85684489  0.13616501  0.95348156    -0.04800
C1277       C  0.79502524  0.12827861  0.95135833    -0.05600
C1278       C  0.84747288  0.18942135  0.95687636    -0.05500
C1279       C  0.88036405  0.12303767  0.93813720    -0.30900
N1280       N  0.89322840  0.11205113  0.97770104     0.15600
C1281       C  0.84844004  0.13088067  0.52419256    -0.30900
H1282       H  0.85145529  0.12522854  0.56202851     0.17600
C1283       C  0.75945891  0.10422550  0.93392500    -0.29800
N1284       N  0.73749828  0.08812479  0.97236965     0.14400
C1285       C  0.75302304  0.14998627  0.50769554    -0.29800
C1286       C  0.87407854  0.22443054  0.94437873    -0.30100
N1287       N  0.89978105  0.27460780  0.49543499     0.14900
H1288       H  0.88196925  0.23342682  0.90753263     0.17500
C1289       C  0.88038261  0.25290531  0.53284703    -0.30100
H1290       H  0.88610811  0.26126347  0.57097012     0.17500
H1291       H  0.74236567  0.13921798  0.54300280     0.17500
H1292       H  0.88744682  0.12118485  0.90087492     0.17600
H1293       H  0.75031802  0.09809410  0.89583553     0.17500
C1294       C  0.82038720  0.17382640  0.78395254     0.31400
C1295       C  0.82176903  0.18826342  0.68361409     0.31400
C1296       C  0.83998413  0.15724850  0.75113448    -0.04800
C1297       C  0.78202591  0.15964013  0.75632977    -0.05600
C1298       C  0.83950171  0.21539022  0.76930476    -0.05500
C1299       C  0.84105000  0.16552522  0.70114966    -0.04800
C1300       C  0.78242283  0.16633946  0.70577778    -0.05600
C1301       C  0.84002820  0.22271230  0.71923654    -0.05500
C1302       C  0.85799305  0.14790057  0.67776344    -0.30900
N1303       N  0.86647402  0.12797683  0.71060725     0.15600
C1304       C  0.85525512  0.13306432  0.75516615    -0.30900
H1305       H  0.85713163  0.11898280  0.78756500     0.17600
C1306       C  0.74571872  0.15594380  0.69128050    -0.29800
N1307       N  0.72358035  0.14416845  0.73079686     0.14400
C1308       C  0.74555035  0.14638406  0.77051566    -0.29800
C1309       C  0.85519770  0.26119121  0.71557958    -0.30100
N1310       N  0.86352298  0.27727325  0.76120348     0.14900
H1311       H  0.86078190  0.27657924  0.68204489     0.17500
C1312       C  0.85467715  0.24958835  0.79403270    -0.30100
H1313       H  0.85949825  0.25407701  0.83315295     0.17500
H1314       H  0.73574346  0.13878947  0.80710978     0.17500
H1315       H  0.86252471  0.14853170  0.63920062     0.17600
H1316       H  0.73593264  0.15765328  0.65464450     0.17500
N1317       N  0.57755713  0.01825101  0.98305357    -0.04700
N1318       N  0.60599057  0.02768908  0.01504075    -0.56900
N1319       N  0.58641284  0.08593949  0.91184813    -0.04400
N1320       N  0.60705509  0.12076958  0.89815928    -0.59000
N1321       N  0.56937262  0.08476826  0.95247425    -0.04000
N1322       N  0.57956373  0.11913225  0.96822045    -0.56800
N1323       N  0.58776846  0.01366497  0.93960535    -0.03700
N1324       N  0.62173705  0.01771527  0.94196874    -0.59300
C1325       C  0.63331153  0.02668672  0.98904897     0.97400
C1326       C  0.60295293  0.14121905  0.93415600     0.97200
N1327       N  0.95898011  0.47035407  0.86725577    -0.04900
N1328       N  0.92916249  0.47405509  0.87807558    -0.57400
N1329       N  0.53578312  0.46549468  0.81373955    -0.03000
N1330       N  0.56728256  0.46340056  0.81406293    -0.58700
N1331       N  0.50732751  0.43185168  0.82067460    -0.05000
N1332       N  0.51957573  0.40726755  0.82590006    -0.57700
N1333       N  0.51629114  0.03982924  0.86289547    -0.02700
N1334       N  0.51691231  0.07085242  0.87873013    -0.58800
Mn1335     Mn  0.56493966  0.02935628  0.87072753     1.18400
C1336       C  0.91307955  0.96973961  0.83252847     0.99500
C1337       C  0.55676043  0.42712070  0.82193516     1.00200
N1338       N  0.98236806  0.03969678  0.97788033    -0.05000
N1339       N  0.97171789  0.06566321  0.97613067    -0.61300
N1340       N  0.02112447  0.50434688  0.50376095    -0.03800
N1341       N  0.03313859  0.47994005  0.49394640    -0.62000
N1342       N  0.51102494  0.99380973  0.48827183    -0.04500
N1343       N  0.53844996  0.98770850  0.47398666    -0.61600
N1344       N  0.95518219  0.00842106  0.99359797    -0.03400
N1345       N  0.92604859  0.01261551  0.00443497    -0.62200
Mn1346     Mn  0.52954333  0.03014183  0.98724844     1.10700
C1347       C  0.93682982  0.04856116  0.99350932     1.00700
C1348       C  0.06872629  0.50084683  0.48032620     1.00800
N1349       N  0.96290283  0.38495445  0.90280519    -0.04500
N1350       N  0.96081413  0.35193510  0.89667752    -0.59900
N1351       N  0.90685073  0.41615006  0.93509510    -0.03800
N1352       N  0.87528434  0.40959552  0.95425527    -0.56600
N1353       N  0.90137267  0.40311091  0.88956530    -0.05100
N1354       N  0.86574382  0.38906658  0.87615283    -0.59400
N1355       N  0.96337794  0.39247621  0.94940532    -0.04100
N1356       N  0.96132422  0.36460181  0.97594484    -0.56600
Mn1357     Mn  0.95069870  0.41510402  0.84488413     1.20200
Mn1358     Mn  0.96183123  0.44279431  0.97144346     1.10100
Cl1359     Cl  0.99473070  0.97917690  0.91538382    -0.84600
C1360       C  0.95991193  0.33940317  0.94234824     0.97700
C1361       C  0.85010544  0.39297993  0.91720241     0.97500
N1362       N  0.56262561  0.07636948  0.74037085    -0.04700
N1363       N  0.59104004  0.10620196  0.76264634    -0.56900
N1364       N  0.56458663  0.07688815  0.62489091    -0.04400
N1365       N  0.59259966  0.10261153  0.60037028    -0.59000
N1366       N  0.54309711  0.09079316  0.63851744    -0.04000
N1367       N  0.55464794  0.12455993  0.62191822    -0.56800
N1368       N  0.57500364  0.05335839  0.72697384    -0.03700
N1369       N  0.60986802  0.06546414  0.74204939    -0.59300
C1370       C  0.62043183  0.09867529  0.76368867     0.97400
C1371       C  0.58538877  0.13190090  0.59758454     0.97200
N1372       N  0.01678391  0.45217911  0.59545230    -0.04900
N1373       N  0.02055109  0.42392176  0.57734438    -0.57400
N1374       N  0.56484451  0.47203804  0.70239249    -0.03000
N1375       N  0.59297067  0.46456534  0.70564425    -0.58700
N1376       N  0.53275122  0.44096055  0.70543339    -0.05000
N1377       N  0.53899256  0.41223229  0.71132363    -0.57700
N1378       N  0.54341638  0.99127123  0.59095515    -0.02700
N1379       N  0.57227646  0.98805295  0.57604383    -0.58800
Mn1380     Mn  0.55805799  0.02372451  0.65839679     1.18400
C1381       C  0.04462362  0.93303868  0.55947071     0.99500
C1382       C  0.57656778  0.42733851  0.71185612     1.00200
N1383       N  0.96093600  0.06497773  0.65395619    -0.05000
N1384       N  0.95665352  0.09523428  0.65268655    -0.61300
N1385       N  0.96209633  0.53236738  0.76491965    -0.03800
N1386       N  0.93777386  0.54036195  0.78493272    -0.62000
N1387       N  0.47071364  0.05055669  0.76047178    -0.04500
N1388       N  0.46438161  0.07644062  0.78029977    -0.61600
N1389       N  0.92779583  0.03464719  0.65125231    -0.03400
N1390       N  0.90104913  0.04445794  0.65018579    -0.62200
Mn1391     Mn  0.50961661  0.07100583  0.70124015     1.10700
C1392       C  0.91931554  0.08225063  0.65018380     1.00700
C1393       C  0.95674224  0.57715350  0.79575216     1.00800
N1394       N  0.95200224  0.42450884  0.72552988    -0.04500
N1395       N  0.93873303  0.39022108  0.74104506    -0.59900
N1396       N  0.91703018  0.45925530  0.63815659    -0.03800
N1397       N  0.88247918  0.44856926  0.62266370    -0.56600
N1398       N  0.92811657  0.43525498  0.62468610    -0.05100
N1399       N  0.89924590  0.40633363  0.60203982    -0.59400
N1400       N  0.93183971  0.43987163  0.73979723    -0.04100
N1401       N  0.90275019  0.41425181  0.76339250    -0.56600
Mn1402     Mn  0.98183601  0.43929144  0.65922893     1.20200
Mn1403     Mn  0.93944465  0.49314278  0.70303967     1.10100
Cl1404     Cl  0.98737420  0.99701516  0.67690706    -0.84600
C1405       C  0.90801960  0.38349314  0.76475354     0.97700
C1406       C  0.87128458  0.41550599  0.59987844     0.97500
C1407       C  0.66139726  0.33126332  0.83068639     0.31400
C1408       C  0.66459039  0.33762735  0.93275678     0.31400
C1409       C  0.63384370  0.34206943  0.85407656    -0.04800
C1410       C  0.65411039  0.29612929  0.85901967    -0.05600
C1411       C  0.69853853  0.36130089  0.85447407    -0.05500
C1412       C  0.63497380  0.34542915  0.90560770    -0.04800
C1413       C  0.65553494  0.29937609  0.91002298    -0.05600
C1414       C  0.70003438  0.36381052  0.90612444    -0.05500
C1415       C  0.61305836  0.36202289  0.91604040    -0.30900
N1416       N  0.60001178  0.36930567  0.87320524     0.15600
C1417       C  0.61264803  0.35739243  0.83562765    -0.30900
H1418       H  0.60781845  0.36092138  0.79745432     0.17600
C1419       C  0.64748188  0.26496679  0.92802107    -0.29800
N1420       N  0.64109557  0.24095308  0.88979826     0.14400
C1421       C  0.64536725  0.25979712  0.84758332    -0.29800
C1422       C  0.73682018  0.37936758  0.92110103    -0.30100
N1423       N  0.75768929  0.38625794  0.88115268     0.14900
H1424       H  0.74674359  0.38118499  0.95858486     0.17500
C1425       C  0.73492181  0.37610082  0.84072412    -0.30100
H1426       H  0.74441091  0.37582072  0.80456175     0.17500
H1427       H  0.64172593  0.24773671  0.81122316     0.17500
H1428       H  0.60862589  0.37026026  0.95172119     0.17600
H1429       H  0.64640794  0.25811793  0.96622989     0.17500
C1430       C  0.66461497  0.32852700  0.58323288     0.31400
C1431       C  0.67655045  0.32892849  0.68400541     0.31400
C1432       C  0.65319841  0.35286867  0.61446078    -0.04800
C1433       C  0.64477268  0.29011764  0.60860186    -0.05600
C1434       C  0.70549282  0.34228384  0.60163054    -0.05500
C1435       C  0.65969856  0.35297343  0.66498820    -0.04800
C1436       C  0.65060209  0.29067799  0.65985289    -0.05600
C1437       C  0.71143213  0.34266880  0.65264784    -0.05500
C1438       C  0.64773521  0.37542303  0.68657341    -0.30900
N1439       N  0.63311630  0.38837541  0.65146919     0.15600
C1440       C  0.63672854  0.37543066  0.60710769    -0.30900
H1441       H  0.62719614  0.38115404  0.57244219     0.17600
C1442       C  0.64482812  0.25566389  0.67222293    -0.29800
N1443       N  0.63526760  0.23354523  0.63155263     0.14400
C1444       C  0.63612139  0.25437496  0.59251624    -0.29800
C1445       C  0.74949132  0.35979772  0.66167476    -0.30100
N1446       N  0.76678586  0.36880733  0.61842328     0.14900
H1447       H  0.76374834  0.36759990  0.69727287     0.17500
C1448       C  0.74030522  0.35849031  0.58158736    -0.30100
H1449       H  0.74609948  0.36506857  0.54364874     0.17500
H1450       H  0.63237696  0.24488468  0.55481181     0.17500
H1451       H  0.64947654  0.38210915  0.72512627     0.17600
H1452       H  0.64941313  0.24743524  0.70827044     0.17500
C1453       C  0.65673670  0.32688416  0.77361644    -0.15100
C1454       C  0.68248030  0.32928367  0.74074857    -0.30200
H1455       H  0.62999750  0.32238663  0.75827151     0.14000
H1456       H  0.70883189  0.33192617  0.75422708     0.14500
C1457       C  0.67103869  0.33870298  0.98990471    -0.15100
C1458       C  0.66397632  0.35829667  0.02478548    -0.30200
H1459       H  0.68517905  0.32344509  0.00304681     0.14000
H1460       H  0.63365888  0.29916952  0.51420892     0.14500
C1461       C  0.62280064  0.19394454  0.63303788    -0.15100
C1462       C  0.61422322  0.17136678  0.59312381    -0.30200
H1463       H  0.61524244  0.18093793  0.66846834     0.14000
H1464       H  0.62167339  0.18267422  0.55696766     0.14500
C1465       C  0.83083596  0.38786758  0.59463981    -0.15100
C1466       C  0.80552457  0.39572332  0.61484018    -0.30200
H1467       H  0.82207555  0.36048306  0.57822935     0.14000
H1468       H  0.81490959  0.42231153  0.63398722     0.14500
C1469       C  0.59482561  0.40488496  0.70060619    -0.15100
C1470       C  0.61569209  0.41101578  0.66111335    -0.30200
H1471       H  0.58864584  0.38092242  0.72309904     0.14000
H1472       H  0.61876626  0.43253129  0.63559691     0.14500
C1473       C  0.63075809  0.20184279  0.89231258    -0.15100
C1474       C  0.61633308  0.18184819  0.93252487    -0.30200
H1475       H  0.63289054  0.18781312  0.85969621     0.14000
H1476       H  0.61205849  0.19495471  0.96442527     0.14500
C1477       C  0.81262047  0.38806491  0.91933636    -0.15100
C1478       C  0.79546558  0.39313159  0.88008827    -0.30200
H1479       H  0.80003403  0.38182170  0.95460142     0.14000
H1480       H  0.80935827  0.40003672  0.84549709     0.14500
C1481       C  0.58293693  0.41232013  0.83269448    -0.15100
C1482       C  0.57680256  0.38696422  0.86763653    -0.30200
H1483       H  0.60800995  0.42266717  0.81179012     0.14000
H1484       H  0.55377386  0.37926990  0.89184922     0.14500
C1485       C  0.94180699  0.59441811  0.82707395    -0.17500
C1486       C  0.92202814  0.58478635  0.86122272     0.06900
C1487       C  0.88741822  0.00521783  0.88133195     0.08800
C1488       C  0.89243846  0.98086131  0.86403417    -0.18000
C1489       C  0.05684818  0.92828111  0.51279948    -0.17100
C1490       C  0.07165559  0.94744473  0.47865401     0.06900
C1491       C  0.10248443  0.46206189  0.47343337     0.08800
C1492       C  0.09318717  0.48583276  0.46924469    -0.18000
C1493       C  0.90185720  0.10642299  0.65994515    -0.15100
C1494       C  0.88179574  0.10306116  0.69994983    -0.30200
H1495       H  0.90859952  0.12962510  0.63578099     0.14000
H1496       H  0.87819670  0.08175639  0.72615655     0.14500
C1497       C  0.88865890  0.31648236  0.77152563    -0.15100
C1498       C  0.87840419  0.34370097  0.76948989    -0.30200
H1499       H  0.91815924  0.32461860  0.77658409     0.14000
H1500       H  0.84909909  0.33644535  0.76569240     0.14500
C1501       C  0.66121982  0.12699517  0.76461560    -0.15100
C1502       C  0.68297035  0.12624436  0.72819590    -0.30200
H1503       H  0.67376033  0.14524900  0.79648398     0.14000
H1504       H  0.66909447  0.10958639  0.69537630     0.14500
C1505       C  0.91879373  0.09714302  0.97544664    -0.15100
C1506       C  0.91311348  0.06648434  0.99988376    -0.30200
H1507       H  0.94086844  0.10875285  0.94937939     0.14000
H1508       H  0.88905577  0.05288188  0.02260805     0.14500
C1509       C  0.91984847  0.28322012  0.98805033    -0.15100
C1510       C  0.94143417  0.29896591  0.94999765    -0.30200
H1511       H  0.94539133  0.32301279  0.46503823     0.14000
H1512       H  0.94053334  0.28157840  0.91933819     0.14500
C1513       C  0.69882103  0.06019140  0.96632507    -0.15100
C1514       C  0.67377112  0.05020277  0.00187998    -0.30200
H1515       H  0.68454096  0.10182073  0.41964993     0.14000
H1516       H  0.68236944  0.06214683  0.03853273     0.14500
C1517       C  0.83468515  0.15408113  0.87134192    -0.15100
C1518       C  0.81766110  0.16867647  0.84106602    -0.30200
H1519       H  0.85228778  0.14448289  0.85496177     0.14000
H1520       H  0.80133130  0.17959326  0.85874380     0.14500
C1521       C  0.81620195  0.17304507  0.58864201    -0.15100
C1522       C  0.82555969  0.19802902  0.62740770    -0.30200
H1523       H  0.80153461  0.14366624  0.59772924     0.14000
H1524       H  0.83860912  0.22736999  0.61903693     0.14500
C1525       C  0.83484794  0.64638704  0.04405302     0.31400
C1526       C  0.84635553  0.68426839  0.44618785     0.31400
C1527       C  0.85362787  0.62319312  0.02481063    -0.04800
C1528       C  0.79835358  0.63001165  0.01035135    -0.05600
C1529       C  0.85916167  0.68514655  0.02044256    -0.05500
C1530       C  0.86099601  0.66183768  0.47577572    -0.04800
C1531       C  0.80485646  0.66471275  0.46006825    -0.05600
C1532       C  0.86265209  0.72061238  0.47780045    -0.05500
C1533       C  0.88424247  0.64712519  0.46620919    -0.30900
N1534       N  0.89052852  0.63305848  0.50793380     0.15600
C1535       C  0.86779857  0.60062067  0.04433389    -0.30900
H1536       H  0.86793496  0.59383075  0.08246404     0.17600
C1537       C  0.77050698  0.64751554  0.43546733    -0.29800
N1538       N  0.74324358  0.63557578  0.46811204     0.14400
C1539       C  0.75984233  0.61411091  0.01545692    -0.29800
C1540       C  0.88375360  0.75811868  0.46903808    -0.30100
N1541       N  0.89921639  0.74280697  0.99515595     0.14900
H1542       H  0.89258026  0.77005238  0.43358283     0.17500
C1543       C  0.88258491  0.72242807  0.03527688    -0.30100
H1544       H  0.88859623  0.73333777  0.07236940     0.17500
H1545       H  0.74586264  0.60982963  0.04958377     0.17500
H1546       H  0.89698113  0.64788625  0.43193116     0.17600
H1547       H  0.76475958  0.64366214  0.39671246     0.17500
C1548       C  0.84281032  0.67460249  0.29484045     0.31400
C1549       C  0.84632285  0.66062649  0.19556149     0.31400
C1550       C  0.87890561  0.67471023  0.27993772    -0.04800
C1551       C  0.81265305  0.63667434  0.27337488    -0.05600
C1552       C  0.84008120  0.70205763  0.25839985    -0.05500
C1553       C  0.88058919  0.66785630  0.22930851    -0.04800
C1554       C  0.81380033  0.62927674  0.22301495    -0.05600
C1555       C  0.84181494  0.69481613  0.20816854    -0.05500
C1556       C  0.90383914  0.65233930  0.22610511    -0.30900
N1557       N  0.91636796  0.64960918  0.27140481     0.15600
C1558       C  0.90090437  0.66222718  0.30434757    -0.30900
H1559       H  0.90103850  0.65704884  0.34295103     0.17600
C1560       C  0.77707884  0.60471543  0.20857677    -0.29800
N1561       N  0.75492099  0.59608351  0.24769614     0.14400
C1562       C  0.77644999  0.61541931  0.28705443    -0.29800
C1563       C  0.85595822  0.72846476  0.18527457    -0.30100
N1564       N  0.86284136  0.75570964  0.21876673     0.14900
H1565       H  0.86387586  0.73289599  0.14773835     0.17500
C1566       C  0.85382920  0.74011422  0.26317499    -0.30100
H1567       H  0.86064530  0.75584385  0.29737071     0.17500
H1568       H  0.76604753  0.61760831  0.32187358     0.17500
H1569       H  0.90735685  0.63923589  0.19369491     0.17600
H1570       H  0.76653157  0.59694329  0.17120912     0.17500
N1571       N  0.58347776  0.59203236  0.47638889    -0.04700
N1572       N  0.61686071  0.61244092  0.49715644    -0.56900
N1573       N  0.52059926  0.58507004  0.40066265    -0.04400
N1574       N  0.52798110  0.61367066  0.37181436    -0.59000
N1575       N  0.51439820  0.59306118  0.44483383    -0.04000
N1576       N  0.51482419  0.62557352  0.44555071    -0.56800
N1577       N  0.58595199  0.57751996  0.43430579    -0.03700
N1578       N  0.62155272  0.58810495  0.42621198    -0.59300
C1579       C  0.64034937  0.60998048  0.46601290     0.97400
C1580       C  0.52293512  0.63822967  0.39996413     0.97200
N1581       N  0.92544296  0.00708116  0.36921995    -0.04900
N1582       N  0.89181883  0.00356777  0.36436947    -0.57400
N1583       N  0.52441245  0.98722923  0.35789144    -0.03000
N1584       N  0.55257183  0.98095809  0.34824358    -0.58700
N1585       N  0.49258156  0.95545930  0.35803872    -0.05000
N1586       N  0.49956997  0.92730021  0.34920363    -0.57700
N1587       N  0.48177509  0.50085062  0.34669311    -0.02700
N1588       N  0.48397358  0.48017928  0.31149634    -0.58800
Mn1589     Mn  0.53311120  0.53849145  0.39082214     1.18400
C1590       C  0.94788469  0.45080451  0.30177141     0.99500
C1591       C  0.53675182  0.94352402  0.34191408     1.00200
N1592       N  0.99068060  0.57818835  0.53495352    -0.05000
N1593       N  0.97741663  0.60198370  0.53576370    -0.61300
N1594       N  0.01901685  0.00063307  0.02883859    -0.03800
N1595       N  0.02116565  0.02666308  0.05916975    -0.62000
N1596       N  0.53840045  0.49147096  0.97899758    -0.04500
N1597       N  0.56775617  0.48700653  0.97267037    -0.61600
N1598       N  0.96499418  0.54457661  0.54748008    -0.03400
N1599       N  0.93404399  0.54574833  0.55761183    -0.62200
Mn1600     Mn  0.52943503  0.57269030  0.51150404     1.10700
C1601       C  0.94220495  0.58152342  0.55024930     1.00700
C1602       C  0.05517513  0.05668705  0.05611815     1.00800
N1603       N  0.94408054  0.92877401  0.45122859    -0.04500
N1604       N  0.94240024  0.89669437  0.43979648    -0.59900
N1605       N  0.88432992  0.96054180  0.48538902    -0.03800
N1606       N  0.84964482  0.95067675  0.49782602    -0.56600
N1607       N  0.88442877  0.95240147  0.43928740    -0.05100
N1608       N  0.85063703  0.93704164  0.41877969    -0.59400
N1609       N  0.94300137  0.93316468  0.49819164    -0.04100
N1610       N  0.93962173  0.90288261  0.52042411    -0.56600
Mn1611     Mn  0.93606096  0.96570351  0.40478594     1.20200
Mn1612     Mn  0.94087652  0.98522591  0.52216846     1.10100
Cl1613     Cl  0.99880480  0.51977202  0.45438237    -0.84600
C1614       C  0.94017698  0.88083062  0.48323859     0.97700
C1615       C  0.82905644  0.93626677  0.45528280     0.97500
N1616       N  0.59936653  0.55842821  0.27423263    -0.04700
N1617       N  0.62870157  0.56431483  0.30272830    -0.56900
N1618       N  0.57618616  0.60496441  0.19579424    -0.04400
N1619       N  0.58801018  0.63650012  0.17285963    -0.59000
N1620       N  0.56558015  0.60753799  0.23938858    -0.04000
N1621       N  0.56982128  0.64127155  0.24775417    -0.56800
N1622       N  0.60478634  0.55225690  0.22885946    -0.03700
N1623       N  0.63773650  0.55443394  0.22507342    -0.59300
C1624       C  0.65242447  0.56158404  0.27108424     0.97400
C1625       C  0.58384090  0.65875623  0.20560436     0.97200
N1626       N  0.97417592  0.00624819  0.12575828    -0.04900
N1627       N  0.95541762  0.02388024  0.10929434    -0.57400
N1628       N  0.54289928  0.98719897  0.10097946    -0.03000
N1629       N  0.57175874  0.98232382  0.09138865    -0.58700
N1630       N  0.51475693  0.95587209  0.11536962    -0.05000
N1631       N  0.52381856  0.92885783  0.11383325    -0.57700
N1632       N  0.54016159  0.56267972  0.10777772    -0.02700
N1633       N  0.56797907  0.58581688  0.08136195    -0.58800
Mn1634     Mn  0.56940209  0.55295888  0.16702705     1.18400
C1635       C  0.07687139  0.55976392  0.03846405     0.99500
C1636       C  0.55915615  0.94572378  0.09848712     1.00200
N1637       N  0.97966591  0.55404385  0.27305633    -0.05000
N1638       N  0.97319456  0.58199278  0.28379574    -0.61300
N1639       N  0.96386045  0.95145177  0.25730214    -0.03800
N1640       N  0.93273655  0.92624862  0.27662554    -0.62000
N1641       N  0.52920871  0.49867206  0.24345799    -0.04500
N1642       N  0.54874432  0.48077207  0.25213989    -0.61600
N1643       N  0.94935011  0.52610874  0.25294080    -0.03400
N1644       N  0.92183855  0.53444619  0.25087631    -0.62200
Mn1645     Mn  0.54010620  0.55320583  0.28209017     1.10700
C1646       C  0.93691308  0.56907439  0.27060729     1.00700
C1647       C  0.92024384  0.94703673  0.29887272     1.00800
N1648       N  0.94052061  0.90456737  0.13297317    -0.04500
N1649       N  0.93335286  0.86976922  0.12418890    -0.59900
N1650       N  0.89947891  0.95720595  0.13464441    -0.03800
N1651       N  0.86688914  0.95606098  0.13462708    -0.56600
N1652       N  0.90737799  0.95039337  0.09098322    -0.05100
N1653       N  0.87919201  0.94403636  0.06002649    -0.59400
N1654       N  0.92699315  0.90678991  0.17440331    -0.04100
N1655       N  0.91074676  0.87422587  0.19561991    -0.56600
Mn1656     Mn  0.96376496  0.95330875  0.08558926     1.20200
Mn1657     Mn  0.93208325  0.95877326  0.19818882     1.10100
Cl1658     Cl  0.00789317  0.51382529  0.19141743    -0.84600
C1659       C  0.91514130  0.85138436  0.16402119     0.97700
C1660       C  0.85422233  0.94797400  0.08791352     0.97500
C1661       C  0.63875806  0.83826011  0.32116790     0.31400
C1662       C  0.63111923  0.83309467  0.42275462     0.31400
C1663       C  0.61473959  0.85407785  0.34348312    -0.04800
C1664       C  0.62041827  0.79842122  0.34300733    -0.05600
C1665       C  0.67547254  0.85864128  0.35376150    -0.05500
C1666       C  0.61033890  0.85106096  0.39428163    -0.04800
C1667       C  0.61695190  0.79615285  0.39396142    -0.05600
C1668       C  0.67074244  0.85593780  0.40460321    -0.05500
C1669       C  0.58493238  0.86330960  0.40453869    -0.30900
N1670       N  0.57537323  0.87521203  0.36261378     0.15600
C1671       C  0.59331959  0.86955795  0.32523305    -0.30900
H1672       H  0.59006039  0.87517460  0.28730938     0.17600
C1673       C  0.59576537  0.75908873  0.40472588    -0.29800
N1674       N  0.58597778  0.73837487  0.36242809     0.14400
C1675       C  0.60086801  0.76203542  0.32474763    -0.29800
C1676       C  0.70504645  0.87574377  0.42790611    -0.30100
N1677       N  0.73134308  0.88977265  0.39387068     0.14900
H1678       H  0.71016011  0.87934307  0.46688744     0.17500
C1679       C  0.71382246  0.87957031  0.34867751    -0.30100
H1680       H  0.72832621  0.88646270  0.31486521     0.17500
H1681       H  0.59603998  0.75362737  0.28672044     0.17500
H1682       H  0.57373134  0.86284164  0.43985268     0.17600
H1683       H  0.58753880  0.74817240  0.44081820     0.17500
C1684       C  0.65586506  0.83764799  0.07269997     0.31400
C1685       C  0.66190256  0.85159944  0.17409190     0.31400
C1686       C  0.63180826  0.85395477  0.09311840    -0.04800
C1687       C  0.64539704  0.80427239  0.10638749    -0.05600
C1688       C  0.69466094  0.86549533  0.09406270    -0.05500
C1689       C  0.63471805  0.86070426  0.14432440    -0.04800
C1690       C  0.64883592  0.81159779  0.15690283    -0.05600
C1691       C  0.69775928  0.87285285  0.14490030    -0.05500
C1692       C  0.61131271  0.87488014  0.15458905    -0.30900
N1693       N  0.59483825  0.87719217  0.11194639     0.15600
C1694       C  0.60700324  0.86478947  0.07422945    -0.30900
H1695       H  0.59858170  0.86403859  0.03616402     0.17600
C1696       C  0.63603769  0.77840260  0.17973915    -0.29800
N1697       N  0.62414243  0.75100045  0.14498369     0.14400
C1698       C  0.62997765  0.76625137  0.10021638    -0.29800
C1699       C  0.73412999  0.89942236  0.15507788    -0.30100
N1700       N  0.75284916  0.90784230  0.11287289     0.14900
H1701       H  0.74636724  0.91160579  0.19066889     0.17500
C1702       C  0.72913074  0.88732032  0.07543908    -0.30100
H1703       H  0.73625238  0.88858875  0.03760354     0.17500
H1704       H  0.62248709  0.75051181  0.06600868     0.17500
H1705       H  0.60697087  0.88352935  0.19012634     0.17600
H1706       H  0.63552014  0.77460544  0.21871595     0.17500
C1707       C  0.63765708  0.83819547  0.26335133    -0.15100
C1708       C  0.66574343  0.85757833  0.23150599    -0.30200
H1709       H  0.61031069  0.81981819  0.24648229     0.14000
H1710       H  0.69310114  0.87708582  0.24668621     0.14500
C1711       C  0.62872908  0.83153848  0.48003410    -0.15100
C1712       C  0.64539863  0.81665372  0.51100668    -0.30200
H1713       H  0.61481859  0.84556035  0.49551477     0.14000
H1714       H  0.64379873  0.79794492  0.00907635     0.14500
C1715       C  0.60851479  0.71204885  0.15332906    -0.15100
C1716       C  0.59522343  0.69765617  0.19670001    -0.30200
H1717       H  0.60813329  0.69416059  0.12350961     0.14000
H1718       H  0.59352037  0.71445143  0.22606561     0.14500
C1719       C  0.81378343  0.93114439  0.07644000    -0.15100
C1720       C  0.79198618  0.93339068  0.11088469    -0.30200
H1721       H  0.80185805  0.91288377  0.04449832     0.14000
H1722       H  0.80503574  0.95167889  0.14273467     0.14500
C1723       C  0.58281268  0.92793896  0.09612482    -0.15100
C1724       C  0.56984173  0.89223669  0.10788749    -0.30200
H1725       H  0.61187548  0.94471025  0.08679466     0.14000
H1726       H  0.54131904  0.87542183  0.11919275     0.14500
C1727       C  0.56418064  0.69804839  0.35842674    -0.15100
C1728       C  0.53887825  0.67878270  0.39181098    -0.30200
H1729       H  0.57002066  0.68327142  0.32985424     0.14000
H1730       H  0.53277488  0.69423756  0.41914656     0.14500
C1731       C  0.78798370  0.92000819  0.44842091    -0.15100
C1732       C  0.77136258  0.90944878  0.40309450    -0.30200
H1733       H  0.77175476  0.91612603  0.48046553     0.14000
H1734       H  0.78876948  0.91491592  0.37175049     0.14500
C1735       C  0.55935304  0.92361716  0.33881094    -0.15100
C1736       C  0.54935184  0.88991205  0.35846016    -0.30200
H1737       H  0.58720942  0.93911928  0.32480643     0.14000
H1738       H  0.52309281  0.87564737  0.37686172     0.14500
C1739       C  0.88368357  0.94247880  0.28477145    -0.17500
C1740       C  0.86214273  0.95395383  0.27301715     0.06900
C1741       C  0.96352281  0.39646518  0.29792334     0.08800
C1742       C  0.94843690  0.41567029  0.30056807    -0.18000
C1743       C  0.10861480  0.55288276  0.04074964    -0.17100
C1744       C  0.12388734  0.53396498  0.04754668     0.06900
C1745       C  0.04106205  0.11158410  0.05606418     0.08800
C1746       C  0.05645399  0.09264151  0.05440364    -0.18000
C1747       C  0.91960451  0.59286127  0.26314331    -0.15100
C1748       C  0.93371465  0.62718450  0.28312831    -0.30200
H1749       H  0.89440259  0.58192060  0.23970844     0.14000
H1750       H  0.95721464  0.63766002  0.30950163     0.14500
C1751       C  0.88056834  0.79521720  0.21112590    -0.15100
C1752       C  0.89838680  0.81087589  0.17015995    -0.30200
H1753       H  0.87985046  0.81293106  0.24039246     0.14000
H1754       H  0.90082295  0.79420881  0.14104948     0.14500
C1755       C  0.69278285  0.57557092  0.28098896    -0.15100
C1756       C  0.71464641  0.57630881  0.24431385    -0.30200
H1757       H  0.70445437  0.58757370  0.31685815     0.14000
H1758       H  0.70161284  0.56380862  0.20897294     0.14500
C1759       C  0.91744098  0.62001770  0.51326111    -0.15100
C1760       C  0.91368470  0.59376815  0.54531878    -0.30200
H1761       H  0.94085427  0.63106294  0.48914749     0.14000
H1762       H  0.88873071  0.58008907  0.56641648     0.14500
C1763       C  0.90795026  0.81780929  0.51889347    -0.15100
C1764       C  0.92950340  0.84089098  0.48499472    -0.30200
H1765       H  0.94351296  0.78811978  0.95775070     0.14000
H1766       H  0.93575748  0.82934774  0.45311491     0.14500
C1767       C  0.70411827  0.61885502  0.45368197    -0.15100
C1768       C  0.68002643  0.62373754  0.48065080    -0.30200
H1769       H  0.68466281  0.58613318  0.99174857     0.14000
H1770       H  0.68987303  0.63924761  0.51512344     0.14500
C1771       C  0.85797158  0.68785398  0.39100364    -0.15100
C1772       C  0.83557434  0.68112660  0.34947582    -0.30200
H1773       H  0.88684820  0.69509068  0.38598037     0.14000
H1774       H  0.80885050  0.67979260  0.35385122     0.14500
C1775       C  0.82728743  0.64718326  0.10045134    -0.15100
C1776       C  0.85236490  0.65534492  0.13947790    -0.30200
H1777       H  0.79942968  0.64182817  0.10913584     0.14000
H1778       H  0.88002188  0.66019438  0.13045126     0.14500
C1779       C  0.83225796  0.67669305  0.54684259     0.31400
C1780       C  0.84293980  0.64624957  0.94281045     0.31400
C1781       C  0.85377084  0.65754351  0.52574705    -0.04800
C1782       C  0.79777443  0.66133973  0.51054750    -0.05600
C1783       C  0.85579372  0.71714611  0.52833663    -0.05500
C1784       C  0.85827851  0.62364816  0.97378845    -0.04800
C1785       C  0.80301977  0.62988748  0.96001390    -0.05600
C1786       C  0.86244811  0.68419723  0.96967751    -0.05500
C1787       C  0.87595162  0.60217373  0.96517386    -0.30900
N1788       N  0.88182477  0.58821000  0.00809842     0.15600
C1789       C  0.87183244  0.63874474  0.54427774    -0.30900
H1790       H  0.87284991  0.63112592  0.58157090     0.17600
C1791       C  0.76827521  0.61410495  0.93653789    -0.29800
N1792       N  0.74185342  0.60452844  0.97038267     0.14400
C1793       C  0.75934058  0.64352320  0.51409862    -0.29800
C1794       C  0.88699079  0.71944070  0.95557621    -0.30100
N1795       N  0.89021738  0.77769666  0.51194352     0.14900
H1796       H  0.89638188  0.72740602  0.91885682     0.17500
C1797       C  0.87361417  0.75317707  0.54795056    -0.30100
H1798       H  0.87502670  0.76195670  0.58538898     0.17500
H1799       H  0.74431362  0.63666848  0.54759150     0.17500
H1800       H  0.88287767  0.59632927  0.92974633     0.17600
H1801       H  0.76294131  0.61032744  0.89747922     0.17500
C1802       C  0.83093432  0.67118525  0.79839469     0.31400
C1803       C  0.83001168  0.68476414  0.69810050     0.31400
C1804       C  0.85417809  0.65934007  0.76573377    -0.04800
C1805       C  0.79189649  0.65215386  0.77063966    -0.05600
C1806       C  0.84472950  0.71248957  0.78340017    -0.05500
C1807       C  0.85421155  0.66750564  0.71595001    -0.04800
C1808       C  0.79190195  0.65851609  0.71954044    -0.05600
C1809       C  0.84365182  0.71905954  0.73313850    -0.05500
C1810       C  0.87324270  0.65268092  0.69220328    -0.30900
N1811       N  0.88354848  0.63398937  0.72452634     0.15600
C1812       C  0.87187810  0.63745622  0.76925733    -0.30900
H1813       H  0.87455039  0.62309601  0.80078383     0.17600
C1814       C  0.75704364  0.65384269  0.70635656    -0.29800
N1815       N  0.73536793  0.64443364  0.74572570     0.14400
C1816       C  0.75642139  0.64421760  0.78530001    -0.29800
C1817       C  0.84941971  0.75528436  0.72867083    -0.30100
N1818       N  0.85475721  0.77129414  0.77394076     0.14900
H1819       H  0.85006169  0.76918740  0.69486807     0.17500
C1820       C  0.85236213  0.74561234  0.80740399    -0.30100
H1821       H  0.85523771  0.75045255  0.84657178     0.17500
H1822       H  0.74748235  0.64060325  0.82253864     0.17500
H1823       H  0.87722105  0.65363310  0.65366548     0.17600
H1824       H  0.74875748  0.65940806  0.67069922     0.17500
N1825       N  0.58774596  0.54825938  0.91875690    -0.04700
N1826       N  0.62094761  0.56278372  0.94144275    -0.56900
N1827       N  0.54373020  0.57595223  0.84983676    -0.04400
N1828       N  0.55484044  0.60749540  0.82642935    -0.59000
N1829       N  0.53951322  0.58128800  0.89623967    -0.04000
N1830       N  0.54810096  0.61639019  0.90524552    -0.56800
N1831       N  0.58905283  0.53881481  0.87374316    -0.03700
N1832       N  0.62400283  0.54742689  0.86415020    -0.59300
C1833       C  0.64350721  0.56189743  0.90728531     0.97400
C1834       C  0.55676941  0.63218129  0.86093081     0.97200
N1835       N  0.94192582  0.93885939  0.82436886    -0.04900
N1836       N  0.90839348  0.93516857  0.83118372    -0.57400
N1837       N  0.55254539  0.97938273  0.82258972    -0.03000
N1838       N  0.57670687  0.96680606  0.81955092    -0.58700
N1839       N  0.51821808  0.95254256  0.81192350    -0.05000
N1840       N  0.51922626  0.92144619  0.80050000    -0.57700
N1841       N  0.48452859  0.50467590  0.86426168    -0.02700
N1842       N  0.47214826  0.52940641  0.87118139    -0.58800
Mn1843     Mn  0.53777612  0.52037508  0.82520912     1.18400
C1844       C  0.94159155  0.51051300  0.88280603     0.99500
C1845       C  0.55576522  0.93079149  0.80552669     1.00200
N1846       N  0.99131151  0.52982319  0.97707539    -0.05000
N1847       N  0.98543818  0.55881716  0.98332121    -0.61300
N1848       N  0.00103924  0.01090497  0.54133910    -0.03800
N1849       N  0.01653528  0.99137466  0.52472543    -0.62000
N1850       N  0.53183384  0.52064139  0.49648414    -0.04500
N1851       N  0.56472292  0.52168595  0.48968597    -0.61600
N1852       N  0.96131654  0.49838154  0.98699405    -0.03400
N1853       N  0.93399863  0.50630621  0.99802086    -0.62200
Mn1854     Mn  0.53518805  0.53812574  0.94683603     1.10700
C1855       C  0.94980775  0.54452899  0.99734395     1.00700
C1856       C  0.05232189  0.01597393  0.51751516     1.00800
N1857       N  0.96930689  0.89170910  0.95019038    -0.04500
N1858       N  0.96129881  0.85648995  0.95485536    -0.59900
N1859       N  0.90796089  0.92440768  0.95872242    -0.03800
N1860       N  0.87481579  0.92023433  0.96896989    -0.56600
N1861       N  0.90530077  0.90529344  0.91890924    -0.05100
N1862       N  0.87024336  0.88731986  0.90158257    -0.59400
N1863       N  0.96870047  0.90661989  0.99290418    -0.04100
N1864       N  0.95834689  0.88034496  0.02640178    -0.56600
Mn1865     Mn  0.95581125  0.91269636  0.88340389     1.20200
Mn1866     Mn  0.96280743  0.95935455  0.99577022     1.10100
Cl1867     Cl  0.99772513  0.47666684  0.89311393    -0.84600
C1868       C  0.95488471  0.84944658  0.00265940     0.97700
C1869       C  0.85160089  0.89711077  0.93323100     0.97500
N1870       N  0.57780943  0.57947790  0.73752303    -0.04700
N1871       N  0.60466863  0.60769983  0.76392548    -0.56900
N1872       N  0.57412103  0.57080518  0.62129514    -0.04400
N1873       N  0.60249618  0.59712833  0.59744540    -0.59000
N1874       N  0.55179721  0.58424756  0.63285591    -0.04000
N1875       N  0.56215778  0.61715017  0.61434994    -0.56800
N1876       N  0.59033499  0.55648866  0.72500078    -0.03700
N1877       N  0.62396263  0.56706551  0.74409927    -0.59300
C1878       C  0.63282618  0.59872537  0.76919235     0.97400
C1879       C  0.59401832  0.62577506  0.59266570     0.97200
N1880       N  0.00605943  0.94277109  0.59898410    -0.04900
N1881       N  0.00809410  0.91784431  0.56975163    -0.57400
N1882       N  0.55327104  0.97213661  0.69068490    -0.03000
N1883       N  0.58202191  0.96579410  0.69725565    -0.58700
N1884       N  0.52207554  0.94019289  0.68438116    -0.05000
N1885       N  0.52952301  0.91193408  0.68544013    -0.57700
N1886       N  0.54722059  0.47754721  0.60353728    -0.02700
N1887       N  0.57227662  0.46883599  0.58744425    -0.58800
Mn1888     Mn  0.56859975  0.51987529  0.66235546     1.18400
C1889       C  0.05674764  0.43866621  0.56746199     0.99500
C1890       C  0.56692585  0.92821390  0.69422392     1.00200
N1891       N  0.97684672  0.57363565  0.66439686    -0.05000
N1892       N  0.97240106  0.60354781  0.65983818    -0.61300
N1893       N  0.93436512  0.02119216  0.74730480    -0.03800
N1894       N  0.90911533  0.02649075  0.76968571    -0.62000
N1895       N  0.49037270  0.56087055  0.76397478    -0.04500
N1896       N  0.48700619  0.58918206  0.78252410    -0.61600
N1897       N  0.94412638  0.54346860  0.66760975    -0.03400
N1898       N  0.91717633  0.55279871  0.66639817    -0.62200
Mn1899     Mn  0.52397128  0.57237057  0.69978898     1.10700
C1900       C  0.93511667  0.59023139  0.66070309     1.00700
C1901       C  0.92838320  0.05956568  0.79383419     1.00800
N1902       N  0.93076287  0.91379821  0.71784803    -0.04500
N1903       N  0.91788462  0.88047900  0.73649750    -0.59900
N1904       N  0.90460018  0.94901076  0.61914058    -0.03800
N1905       N  0.87048090  0.93678851  0.60084648    -0.56600
N1906       N  0.91593476  0.92395628  0.61293499    -0.05100
N1907       N  0.88750246  0.89308548  0.59296174    -0.59400
N1908       N  0.90761280  0.92748658  0.72324988    -0.04100
N1909       N  0.87667245  0.90111881  0.74293877    -0.56600
Mn1910     Mn  0.96630185  0.92824562  0.65733545     1.20200
Mn1911     Mn  0.91926311  0.98230410  0.68529626     1.10100
Cl1912     Cl  0.00470978  0.50764400  0.67904546    -0.84600
C1913       C  0.88441205  0.87253100  0.75293303     0.97700
C1914       C  0.85931686  0.90171372  0.58508689     0.97500
C1915       C  0.65675252  0.82824358  0.82024265     0.31400
C1916       C  0.65841500  0.83913313  0.92210924     0.31400
C1917       C  0.63808733  0.85071468  0.83960616    -0.04800
C1918       C  0.63754432  0.79305428  0.85128233    -0.05600
C1919       C  0.69608562  0.84873409  0.84666888    -0.05500
C1920       C  0.63953958  0.85652979  0.89036054    -0.04800
C1921       C  0.63789423  0.79804079  0.90241841    -0.05600
C1922       C  0.69624655  0.85432191  0.89775179    -0.05500
C1923       C  0.62262881  0.87797063  0.89927111    -0.30900
N1924       N  0.60983434  0.88424736  0.85598835     0.15600
C1925       C  0.61869043  0.86755989  0.81968741    -0.30900
H1926       H  0.61174535  0.86828281  0.78147112     0.17600
C1927       C  0.61637720  0.76273660  0.92050122    -0.29800
N1928       N  0.60428284  0.73724946  0.88303805     0.14400
C1929       C  0.61679637  0.75551759  0.84064333    -0.29800
C1930       C  0.73157185  0.86515540  0.91636609    -0.30100
N1931       N  0.75350709  0.86666248  0.87935670     0.14900
H1932       H  0.73955056  0.86830962  0.95479897     0.17500
C1933       C  0.73213177  0.85595195  0.83706046    -0.30100
H1934       H  0.74177138  0.85135927  0.80276015     0.17500
H1935       H  0.61097541  0.74285595  0.80445554     0.17500
H1936       H  0.61988989  0.88837419  0.93448113     0.17600
H1937       H  0.60888250  0.75539115  0.95778458     0.17500
C1938       C  0.65068796  0.81986127  0.56869932     0.31400
C1939       C  0.66678506  0.82574687  0.66991337     0.31400
C1940       C  0.63447402  0.84054210  0.59997939    -0.04800
C1941       C  0.63721690  0.78247959  0.59625097    -0.05600
C1942       C  0.69252057  0.83970726  0.58594498    -0.05500
C1943       C  0.64378503  0.84389054  0.65029770    -0.04800
C1944       C  0.64485609  0.78559905  0.64753490    -0.05600
C1945       C  0.70060910  0.84276465  0.63653617    -0.05500
C1946       C  0.62751284  0.86243960  0.67205936    -0.30900
N1947       N  0.60677301  0.86926721  0.63825419     0.15600
C1948       C  0.61031486  0.85572677  0.59427746    -0.30900
H1949       H  0.59531412  0.85626505  0.56143282     0.17600
C1950       C  0.64254144  0.75210418  0.66159261    -0.29800
N1951       N  0.63366835  0.72865348  0.62209120     0.14400
C1952       C  0.63100364  0.74704338  0.58199376    -0.29800
C1953       C  0.73895662  0.85745486  0.64276975    -0.30100
N1954       N  0.75421509  0.86249874  0.59817042     0.14900
H1955       H  0.75477769  0.86444262  0.67727238     0.17500
C1956       C  0.72622111  0.85198597  0.56348072    -0.30100
H1957       H  0.73026711  0.85311631  0.52467381     0.17500
H1958       H  0.62602561  0.73601519  0.54490086     0.17500
H1959       H  0.63013069  0.86974185  0.71042022     0.17600
H1960       H  0.64862933  0.74580875  0.69806838     0.17500
C1961       C  0.65049420  0.82031081  0.76299912    -0.15100
C1962       C  0.67623347  0.83115343  0.72690076    -0.30200
H1963       H  0.62132288  0.80527156  0.75050276     0.14000
H1964       H  0.70547923  0.84683263  0.73787709     0.14500
C1965       C  0.66126659  0.85004572  0.97806250    -0.15100
C1966       C  0.65236679  0.82679171  0.01697480    -0.30200
H1967       H  0.67247133  0.87963584  0.98650526     0.14000
H1968       H  0.65900447  0.80272418  0.49342998     0.14500
C1969       C  0.62388452  0.68957593  0.62609907    -0.15100
C1970       C  0.62107919  0.66639025  0.58849887    -0.30200
H1971       H  0.61429064  0.67710452  0.66138542     0.14000
H1972       H  0.63135589  0.67742152  0.55295480     0.14500
C1973       C  0.81850466  0.87408902  0.58433613    -0.15100
C1974       C  0.79320660  0.88645655  0.58960858    -0.30200
H1975       H  0.80948301  0.84433173  0.58364898     0.14000
H1976       H  0.80264227  0.91631137  0.59061367     0.14500
C1977       C  0.58988873  0.90966813  0.68556373    -0.15100
C1978       C  0.58269721  0.88537747  0.64784285    -0.30200
H1979       H  0.61536018  0.91903237  0.70799191     0.14000
H1980       H  0.55907852  0.87886616  0.62274541     0.14500
C1981       C  0.58263841  0.69753155  0.88948623    -0.15100
C1982       C  0.57473896  0.67261813  0.85277324    -0.30200
H1983       H  0.57418669  0.68753495  0.92608254     0.14000
H1984       H  0.58332084  0.68175329  0.81608589     0.14500
C1985       C  0.81270893  0.88974642  0.92578707    -0.15100
C1986       C  0.79178865  0.87392645  0.88463757    -0.30200
H1987       H  0.80157972  0.89897161  0.95499807     0.14000
H1988       H  0.80394699  0.86673627  0.85442715     0.14500
C1989       C  0.56892099  0.90333441  0.81301610    -0.15100
C1990       C  0.59367938  0.90842438  0.84978279    -0.30200
H1991       H  0.55785370  0.87869054  0.78923570     0.14000
H1992       H  0.60181120  0.93136574  0.87602575     0.14500
C1993       C  0.91539472  0.06334423  0.84047393    -0.17500
C1994       C  0.89877834  0.04306945  0.87296823     0.06900
C1995       C  0.91027831  0.55195516  0.88747924     0.08800
C1996       C  0.91840197  0.52735988  0.89149168    -0.18000
C1997       C  0.07240788  0.42176780  0.53654910    -0.17100
C1998       C  0.09175264  0.43038179  0.50188218     0.06900
C1999       C  0.08075680  0.98431272  0.46758971     0.08800
C2000       C  0.07388908  0.00754325  0.48429807    -0.18000
C2001       C  0.91882256  0.61461721  0.67222385    -0.15100
C2002       C  0.89901141  0.60983198  0.71245224    -0.30200
H2003       H  0.92600710  0.63873958  0.64961664     0.14000
H2004       H  0.89507488  0.58757140  0.73719036     0.14500
C2005       C  0.86934005  0.81087553  0.78412062    -0.15100
C2006       C  0.85717902  0.83249531  0.76035884    -0.30200
H2007       H  0.89464027  0.82464057  0.80737236     0.14000
H2008       H  0.83115349  0.81971140  0.73857877     0.14500
C2009       C  0.67301207  0.62549890  0.77930570    -0.15100
C2010       C  0.69607825  0.63412063  0.74161935    -0.30200
H2011       H  0.68395424  0.63032015  0.81680280     0.14000
H2012       H  0.68333953  0.62865475  0.70486264     0.14500
C2013       C  0.89716593  0.56211252  0.01423386    -0.15100
C2014       C  0.93015300  0.56848570  0.99509948    -0.30200
H2015       H  0.88270382  0.53793070  0.03694062     0.14000
H2016       H  0.94529193  0.59474004  0.97643744     0.14500
C2017       C  0.92764453  0.78142696  0.99076695    -0.15100
C2018       C  0.93214960  0.81027477  0.01982454    -0.30200
H2019       H  0.90176865  0.82932944  0.55098193     0.14000
H2020       H  0.91656094  0.80521485  0.05278715     0.14500
C2021       C  0.70171837  0.58850673  0.96095853    -0.15100
C2022       C  0.68459811  0.57668933  0.91592986    -0.30200
H2023       H  0.69481163  0.60496162  0.41805476     0.14000
H2024       H  0.70065492  0.57778556  0.88467344     0.14500
C2025       C  0.84585970  0.64856752  0.88547447    -0.15100
C2026       C  0.83030011  0.66555067  0.85573410    -0.30200
H2027       H  0.86087791  0.63583859  0.86959453     0.14000
H2028       H  0.81506042  0.67722000  0.87449822     0.14500
C2029       C  0.82400915  0.66841678  0.60308563    -0.15100
C2030       C  0.83154766  0.69325722  0.64171971    -0.30200
H2031       H  0.81245164  0.63919678  0.61244673     0.14000
H2032       H  0.84065707  0.72193693  0.63354464     0.14500
loop_ 
_geom_bond_atom_site_label_1 
_geom_bond_atom_site_label_2 
_geom_bond_distance 
_geom_bond_site_symmetry_2 
_ccdc_geom_bond_type 
C1            C3   1.562       .  S
C1            C5   1.546       .  S
C1            C4   1.561       .  S
C1          C251   1.584       .  S
C2            C6   1.562       .  S
C2            C8   1.553       .  S
C2            C7   1.543       .  S
C2          C247   1.587       .  S
C3           C11   1.392       .  A
C3          C260   1.406   1_554  A
C4           C15   1.386       .  A
C4          C261   1.408   1_554  A
C5           C19   1.383       .  A
C5          C262   1.418   1_554  A
C6            C9   1.392       .  A
C6          C257   1.408       .  A
C7           C13   1.381       .  A
C7          C258   1.402       .  A
C8           C16   1.377       .  A
C8          C259   1.419       .  A
C9           N10   1.367       .  A
C9           H22   1.082       .  S
N10         C265   1.362       .  A
N10         C235   1.457       .  S
C11         N264   1.363   1_554  A
C11          H12   1.082       .  S
C13          N14   1.364       .  A
C13          H23   1.081       .  S
N14         C269   1.358       .  A
N14         C243   1.446       .  S
C15         N268   1.368   1_554  A
C15          H21   1.082       .  S
C16         N271   1.357       .  A
C16          H18   1.081       .  S
N17          C19   1.356   1_556  A
N17         C270   1.355       .  A
N17         C493   1.437       .  S
C19          H20   1.082       .  S
C24          C26   1.534       .  S
C24          C28   1.553       .  S
C24          C27   1.545       .  S
C24         C248   1.586       .  S
C25          C29   1.543       .  S
C25          C31   1.539       .  S
C25          C30   1.549       .  S
C25         C252   1.596       .  S
C26          C34   1.371       .  A
C26          C29   1.416       .  A
C27          C38   1.384       .  A
C27          C30   1.426       .  A
C28          C42   1.383       .  A
C28          C31   1.406       .  A
C29          C32   1.370       .  A
C30          C36   1.374       .  A
C31          C39   1.380       .  A
C32          N33   1.354       .  A
C32          H45   1.078       .  S
N33          C34   1.350       .  A
N33         C224   1.424       .  S
C34          H35   1.082       .  S
C36          N37   1.355       .  A
C36          H46   1.083       .  S
N37          C38   1.355       .  A
N37         C232   1.436       .  S
C38          H44   1.082       .  S
C39          N40   1.361       .  A
C39          H41   1.081       .  S
N40          C42   1.363       .  A
N40         C227   1.447       .  S
C42          H43   1.082       .  S
N47          N48   1.324       .  A
N47          N53   1.310       .  A
N47         Mn76   2.239       .  S
N48          C55   1.357       .  A
N49          N51   1.312       .  A
N49          N50   1.319       .  A
N49         Mn65   2.196       .  S
N50          C56   1.354       .  A
N51          N52   1.318       .  A
N51         Mn76   2.189       .  S
N52          C56   1.354       .  A
N53          N54   1.320       .  A
N53         Mn65   2.174       .  S
N54          C55   1.352       .  A
C55         C244   1.479       .  S
C56         C204   1.469       .  S
N57          N58   1.318       .  A
N57        N1587   1.304       .  A
N57         Mn87   2.137       .  S
N58         C574   1.328       .  A
N59          N60   1.331       .  A
N59          N61   1.321       .  A
N59        Mn573   2.232       .  S
N60          C67   1.363       .  A
N61          N62   1.315       .  A
N61       Mn1103   2.231   1_455  S
N62          C67   1.346       .  A
N63          N64   1.329       .  A
N63        N1581   1.304       .  A
N63         Mn65   2.219   1_655  S
N64        C1082   1.366       .  A
Mn65        N567   2.263       .  S
Mn65      Cl1105   2.547   1_455  S
C66         N566   1.346       .  A
C66        N1080   1.343       .  A
C66         C218   1.433       .  S
C67         C211   1.482       .  S
N68          N69   1.325       .  A
N68          N74   1.327       .  A
N68       Mn1092   2.339       .  S
N69          C77   1.349       .  A
N70          N71   1.331       .  A
N70        N1596   1.300   1_554  A
N70        Mn342   2.176   1_554  S
N71          C78   1.364       .  A
N72          N73   1.321       .  A
N72        N1594   1.305       .  A
N72        Mn330   2.117   1_554  S
N73        C1602   1.331       .  A
N74          N75   1.333       .  A
N74        Mn596   2.307   1_545  S
N75          C77   1.358       .  A
Mn76       N1084   2.185   1_455  S
Mn76        N326   2.147       .  S
Mn76      Cl1105   2.507   1_455  S
C77         C236   1.503       .  S
C78        N1597   1.331   1_554  A
C78         C222   1.438       .  S
N79          N80   1.317       .  A
N79          N85   1.315       .  A
N79         Mn87   2.188       .  S
N80          C90   1.351       .  A
N81          N82   1.324       .  A
N81          N83   1.302       .  A
N81         Mn88   2.218       .  S
N82          C91   1.358       .  A
N83          N84   1.316       .  A
N83         Mn87   2.122       .  S
N84          C91   1.344       .  A
N85          N86   1.322       .  A
N85         Mn88   2.240       .  S
N86          C90   1.354       .  A
Mn87       N1077   2.270       .  S
Mn87       Cl597   2.521       .  S
Mn88        N324   2.256       .  S
Mn88        N582   2.210       .  S
Mn88       Cl597   2.671       .  S
Cl89       Mn595   2.572       .  S
Cl89       Mn596   2.535       .  S
Cl89      Mn1081   2.668   1_565  S
Cl89      Mn1092   2.741   1_565  S
C90         C240   1.474       .  S
C91         C207   1.471       .  S
N92          N93   1.327       .  A
N92          N98   1.312       .  A
N92        Mn121   2.202       .  S
N93         C100   1.355       .  A
N94          N96   1.318       .  A
N94          N95   1.322       .  A
N94        Mn110   2.222       .  S
N95         C101   1.354       .  A
N96          N97   1.326       .  A
N96        Mn121   2.265       .  S
N97         C101   1.360       .  A
N98          N99   1.314       .  A
N98        Mn110   2.185       .  S
N99         C100   1.345       .  A
C100        C231   1.483       .  S
C101        C192   1.493       .  S
N102        N103   1.313       .  A
N102       N1632   1.310       .  A
N102       Mn132   2.250       .  S
N103        C619   1.351       .  A
N104        N105   1.323       .  A
N104        N106   1.324       .  A
N104       Mn618   2.257       .  S
N105        C112   1.353       .  A
N106        N107   1.329       .  A
N106      Mn1148   2.235   1_455  S
N107        C112   1.358       .  A
N108        N109   1.341       .  A
N108       N1626   1.315   1_455  A
N108       Mn110   2.258       .  S
N109       C1127   1.330   1_455  A
Mn110       N612   2.176   1_545  S
Mn110     Cl1150   2.572   1_445  S
C111        N611   1.336       .  A
C111       N1125   1.352       .  A
C111        C219   1.432       .  S
C112        C199   1.491       .  S
N113        N114   1.314       .  A
N113        N119   1.327       .  A
N113      Mn1137   2.212       .  S
N114        C122   1.345       .  A
N115        N116   1.331       .  A
N115       N1641   1.314       .  A
N115       Mn133   2.323       .  S
N116        C123   1.341       .  A
N117        N118   1.311       .  A
N117       N1639   1.297       .  A
N117       Mn121   2.220   1_665  S
N118       C1647   1.347       .  A
N119        N120   1.317       .  A
N119       Mn641   2.221   1_545  S
N120        C122   1.351       .  A
Mn121      N1129   2.178   1_455  S
Mn121     Cl1150   2.633   1_445  S
C122        C223   1.445       .  S
C123       N1642   1.344       .  A
C123        C215   1.432       .  S
N124        N125   1.325       .  A
N124        N130   1.317       .  A
N124       Mn132   2.253       .  S
N125        C135   1.359       .  A
N126        N127   1.316       .  A
N126        N128   1.315       .  A
N126       Mn133   2.198       .  S
N127        C136   1.340       .  A
N128        N129   1.335       .  A
N128       Mn132   2.229       .  S
N129        C136   1.364       .  A
N130        N131   1.319       .  A
N130       Mn133   2.203       .  S
N131        C135   1.352       .  A
Mn132      N1122   2.198       .  S
Mn132      Cl642   2.605       .  S
Mn133       N627   2.206       .  S
Mn133      Cl642   2.517       .  S
Cl134     Mn1137   2.528       .  S
Cl134      Mn640   2.570   1_545  S
Cl134      Mn641   2.571   1_545  S
Cl134     Mn1126   2.649       .  S
C135        C228   1.485       .  S
C136        C195   1.493       .  S
C137        C139   1.550       .  S
C137        C141   1.566       .  S
C137        C140   1.553       .  S
C137        C183   1.583       .  S
C138        C142   1.548       .  S
C138        C144   1.525       .  S
C138        C143   1.522       .  S
C138        C187   1.576       .  S
C139        C147   1.383       .  A
C139        C142   1.410       .  A
C140        C151   1.384       .  A
C140        C143   1.404       .  A
C141        C155   1.392       .  A
C141        C144   1.413       .  A
C142        C145   1.379       .  A
C143        C149   1.365       .  A
C144        C152   1.357       .  A
C145        N146   1.363       .  A
C145        H158   1.081       .  S
N146        C147   1.359       .  A
N146        C212   1.446       .  S
C147        H148   1.082       .  S
C149        N150   1.358       .  A
C149        H159   1.082       .  S
N150        C151   1.361       .  A
N150        C203   1.439       .  S
C151        H157   1.083       .  S
C152        N153   1.352       .  A
C152        H154   1.075       .  S
N153        C155   1.368       .  A
N153        C208   1.443       .  S
C155        H156   1.080       .  S
C160        C162   1.574       .  S
C160        C164   1.551       .  S
C160        C163   1.552       .  S
C160        C442   1.594       .  S
C161        C165   1.544       .  S
C161        C167   1.556       .  S
C161        C166   1.543       .  S
C161        C184   1.582       .  S
C162        C170   1.394       .  A
C162        C165   1.418       .  A
C163        C174   1.383       .  A
C163        C166   1.405       .  A
C164        C178   1.388       .  A
C164        C167   1.406       .  A
C165        C168   1.377       .  A
C166        C172   1.385       .  A
C167        C175   1.388       .  A
C168        N169   1.359       .  A
C168        H181   1.081       .  S
N169        C170   1.367       .  A
N169        C200   1.453       .  S
C170        H171   1.079       .  S
C172        N173   1.363       .  A
C172        H182   1.082       .  S
N173        C174   1.363       .  A
N173        C191   1.451       .  S
C174        H180   1.083       .  S
C175        N176   1.366       .  A
C175        H177   1.082       .  S
N176        C178   1.360       .  A
N176        C196   1.455       .  S
C178        H179   1.080       .  S
C183        C184   1.376       .  D
C183        H185   1.086       .  S
C184        H186   1.081       .  S
C187        C188   1.379       .  D
C187        H189   1.077       .  S
C188        C414   1.580       .  S
C188        H444   1.086       .  S
H190        C442   1.085   1_556  S
C191        C192   1.354       .  D
C191        H193   1.087       .  S
C192        H194   1.085       .  S
C195        C196   1.348       .  D
C195        H197   1.086       .  S
C196        H198   1.086       .  S
C199        C200   1.353       .  D
C199        H201   1.085       .  S
C200        H202   1.086       .  S
C203        C204   1.347       .  D
C203        H205   1.087       .  S
C204        H206   1.084       .  S
C207        C208   1.355       .  D
C207        H209   1.082       .  S
C208        H210   1.087       .  S
C211        C212   1.341       .  D
C211        H213   1.087       .  S
C212        H214   1.086       .  S
C215        C216   1.202       .  T
C216        C725   1.409       .  S
C217        C218   1.200       .  T
C217        C724   1.402       .  S
C219        C220   1.205   1_545  T
C220        C729   1.412       .  S
C221        C222   1.211       .  T
C221        C728   1.420       .  S
C223        C224   1.333       .  D
C223        H225   1.087       .  S
C224        H226   1.087       .  S
C227        C228   1.352       .  D
C227        H229   1.087       .  S
C228        H230   1.084       .  S
C231        C232   1.350       .  D
C231        H233   1.086       .  S
C232        H234   1.087       .  S
C235        C236   1.356       .  D
C235        H237   1.086       .  S
C236        H238   1.086       .  S
C239        N271   1.439       .  S
C239        C240   1.346       .  D
C239        H495   1.087       .  S
C240        H242   1.084       .  S
H241        C493   1.087   1_554  S
C243        C244   1.346       .  D
C243        H499   1.087       .  S
C244        H246   1.084       .  S
H245        C497   1.087       .  S
C247        C248   1.383       .  D
C247        H249   1.085       .  S
C248        H250   1.080       .  S
C251        C252   1.382       .  D
C251        H253   1.074       .  S
C252        H254   1.085       .  S
C255        C257   1.552       .  S
C255        C259   1.545       .  S
C255        C258   1.537       .  S
C255        C505   1.577       .  S
C256        C260   1.538       .  S
C256        C262   1.532       .  S
C256        C261   1.520       .  S
C256        C501   1.569       .  S
C257        C265   1.385       .  A
C258        C269   1.377       .  A
C259        C273   1.377       .  A
C260        C263   1.376       .  A
C261        C267   1.361       .  A
C262        C270   1.367       .  A
C263        N264   1.355       .  A
C263        H276   1.080       .  S
N264        C489   1.443       .  S
C265        H266   1.078       .  S
C267        N268   1.353       .  A
C267        H277   1.081       .  S
N268        C497   1.440       .  S
C269        H275   1.083       .  S
C270        H272   1.082       .  S
N271        C273   1.359       .  A
C273        H274   1.079       .  S
C278        C280   1.568       .  S
C278        C282   1.541       .  S
C278        C281   1.551       .  S
C278        C502   1.574       .  S
C279        C283   1.532       .  S
C279        C285   1.556       .  S
C279        C284   1.547       .  S
C279        C506   1.576       .  S
C280        C288   1.398       .  A
C280        C283   1.408       .  A
C281        C292   1.386       .  A
C281        C284   1.410       .  A
C282        C296   1.379       .  A
C282        C285   1.404       .  A
C283        C286   1.371       .  A
C284        C290   1.382       .  A
C285        C293   1.386       .  A
C286        N287   1.351       .  A
C286        H299   1.081       .  S
N287        C288   1.365       .  A
N287        C478   1.446       .  S
C288        H289   1.078       .  S
C290        N291   1.362       .  A
C290        H300   1.082       .  S
N291        C292   1.361       .  A
N291        C486   1.445       .  S
C292        H298   1.082       .  S
C293        N294   1.365       .  A
C293        H295   1.082       .  S
N294        C296   1.357       .  A
N294        C481   1.439       .  S
C296        H297   1.083       .  S
N301        N302   1.312       .  A
N301        N307   1.309       .  A
N301       Mn330   2.174       .  S
N302        C309   1.344       .  A
N303        N305   1.304       .  A
N303        N304   1.327       .  A
N303       Mn319   2.288       .  S
N304        C310   1.360       .  A
N305        N306   1.313       .  A
N305       Mn330   2.079       .  S
N306        C310   1.338       .  A
N307        N308   1.327       .  A
N307       Mn319   2.202       .  S
N308        C309   1.362       .  A
C309        C498   1.473       .  S
C310        C458   1.487       .  S
N311       N1841   1.314       .  A
N311        N312   1.340       .  A
N311       Mn341   2.206       .  S
N312        C828   1.326       .  A
N313        N314   1.322       .  A
N313        N315   1.323       .  A
N313       Mn827   2.202       .  S
N314        C321   1.345       .  A
N315        N316   1.322       .  A
N315      Mn1357   2.198   1_455  S
N316        C321   1.344       .  A
N317       N1835   1.325       .  A
N317        N318   1.315       .  A
N317       Mn319   2.203   1_665  S
N318       C1336   1.341       .  A
Mn319       N821   2.216   1_545  S
Mn319     Cl1359   2.529   1_445  S
C320        N820   1.351       .  A
C320       N1334   1.329       .  A
C320        C472   1.435       .  S
C321        C465   1.472       .  S
N322        N323   1.324   1_556  A
N322        N328   1.322       .  A
N322      Mn1346   2.204       .  S
N323        C331   1.355   1_554  A
N324       N1850   1.311       .  A
N324        N325   1.343       .  A
N325        C332   1.341       .  A
N326       N1848   1.326       .  A
N326        N327   1.323       .  A
N327       C1856   1.326       .  A
N328        N329   1.324       .  A
N328       Mn850   2.272   1_545  S
N329        C331   1.357       .  A
Mn330      N1338   2.238   1_455  S
Mn330     Cl1359   2.451   1_445  S
C331        C490   1.491   1_556  S
C332       N1851   1.325       .  A
C332        C476   1.437       .  S
N333        N334   1.318       .  A
N333        N339   1.307       .  A
N333       Mn341   2.197       .  S
N334        C344   1.350       .  A
N335        N336   1.317       .  A
N335        N337   1.324       .  A
N335       Mn342   2.209       .  S
N336        C345   1.349       .  A
N337        N338   1.319       .  A
N337       Mn341   2.242       .  S
N338        C345   1.356       .  A
N339        N340   1.319       .  A
N339       Mn342   2.149       .  S
N340        C344   1.353       .  A
Mn341      N1331   2.196       .  S
Mn341      Cl851   2.629       .  S
Mn342       N836   2.273       .  S
Mn342      Cl851   2.635       .  S
Cl343     Mn1346   2.631   1_565  S
Cl343      Mn849   2.628       .  S
Cl343      Mn850   2.469       .  S
Cl343     Mn1335   2.605   1_565  S
C344        C494   1.466       .  S
C345        C461   1.465       .  S
N346        N347   1.335       .  A
N346        N352   1.318       .  A
N346       Mn375   2.294       .  S
N347        C354   1.361       .  A
N348        N350   1.319       .  A
N348        N349   1.337       .  A
N348       Mn364   2.303       .  S
N349        C355   1.370       .  A
N350        N351   1.310       .  A
N350       Mn375   2.130       .  S
N351        C355   1.338       .  A
N352        N353   1.314       .  A
N352       Mn364   2.133       .  S
N353        C354   1.339       .  A
C354        C485   1.489       .  S
C355        C446   1.495       .  S
N356       N1886   1.330       .  A
N356        N357   1.327       .  A
N356       Mn386   2.175       .  S
N357        C873   1.340       .  A
N358        N359   1.325       .  A
N358        N360   1.323       .  A
N358       Mn872   2.208       .  S
N359        C366   1.351       .  A
N360        N361   1.322       .  A
N360      Mn1402   2.202   1_455  S
N361        C366   1.348       .  A
N362       N1880   1.323       .  A
N362        N363   1.318       .  A
N362       Mn364   2.194   1_565  S
N363       C1381   1.349       .  A
Mn364       N866   2.194   1_545  S
Mn364     Cl1404   2.562   1_445  S
C365        N865   1.344       .  A
C365       N1379   1.336       .  A
C365        C473   1.431       .  S
C366        C453   1.479       .  S
N367        N368   1.324       .  A
N367        N373   1.319       .  A
N367      Mn1391   2.206       .  S
N368        C376   1.351       .  A
N369       N1895   1.327       .  A
N369        N370   1.316       .  A
N369       Mn387   2.173       .  S
N370        C377   1.342       .  A
N371       N1893   1.323       .  A
N371        N372   1.328       .  A
N371       Mn375   2.216   1_655  S
N372       C1901   1.351       .  A
N373        N374   1.322       .  A
N373       Mn895   2.206   1_545  S
N374        C376   1.349       .  A
Mn375      N1383   2.223   1_455  S
Mn375     Cl1404   2.548   1_445  S
C376        C477   1.480       .  S
C377       N1896   1.339       .  A
C377        C469   1.426       .  S
N378        N379   1.311       .  A
N378        N384   1.316       .  A
N378       Mn386   2.145       .  S
N379        C389   1.339       .  A
N380        N381   1.311       .  A
N380        N382   1.314       .  A
N380       Mn387   2.137       .  S
N381        C390   1.341       .  A
N382        N383   1.331       .  A
N382       Mn386   2.267       .  S
N383        C390   1.362       .  A
N384        N385   1.333       .  A
N384       Mn387   2.263       .  S
N385        C389   1.366       .  A
Mn386      N1376   2.202       .  S
Mn386      Cl896   2.524       .  S
Mn387       N881   2.185       .  S
Mn387      Cl896   2.534       .  S
Cl388     Mn1380   2.510       .  S
Cl388     Mn1391   2.547       .  S
Cl388      Mn894   2.547   1_545  S
Cl388      Mn895   2.522   1_545  S
C389        C482   1.493       .  S
C390        C449   1.487       .  S
C391        C393   1.540       .  S
C391        C395   1.544       .  S
C391        C394   1.542       .  S
C391        C437   1.582       .  S
C392        C396   1.543       .  S
C392        C398   1.545       .  S
C392        C397   1.554       .  S
C392        C441   1.593       .  S
C393        C401   1.378       .  A
C393        C396   1.406       .  A
C394        C405   1.377       .  A
C394        C397   1.414       .  A
C395        C409   1.378       .  A
C395        C398   1.422       .  A
C396        C399   1.380       .  A
C397        C403   1.378       .  A
C398        C406   1.375       .  A
C399        N400   1.354       .  A
C399        H412   1.082       .  S
N400        C401   1.356       .  A
N400        C466   1.433       .  S
C401        H402   1.079       .  S
C403        N404   1.365       .  A
C403        H413   1.083       .  S
N404        C405   1.359       .  A
N404        C457   1.444       .  S
C405        H411   1.081       .  S
C406        N407   1.356       .  A
C406        H408   1.078       .  S
N407        C409   1.349       .  A
N407        C462   1.435       .  S
C409        H410   1.079       .  S
C414        C416   1.563       .  S
C414        C418   1.544       .  S
C414        C417   1.558       .  S
C415        C419   1.531       .  S
C415        C421   1.549       .  S
C415        C420   1.547       .  S
C415        C438   1.570       .  S
C416        C424   1.396       .  A
C416        C419   1.408       .  A
C417        C428   1.382       .  A
C417        C420   1.412       .  A
C418        C432   1.380       .  A
C418        C421   1.404       .  A
C419        C422   1.369       .  A
C420        C426   1.387       .  A
C421        C429   1.383       .  A
C422        N423   1.351       .  A
C422        H435   1.079       .  S
N423        C424   1.365       .  A
N423        C454   1.445       .  S
C424        H425   1.078       .  S
C426        N427   1.364       .  A
C426        H436   1.083       .  S
N427        C428   1.361       .  A
N427        C445   1.443       .  S
C428        H434   1.083       .  S
C429        N430   1.360       .  A
C429        H431   1.082       .  S
N430        C432   1.356       .  A
N430        C450   1.435       .  S
C432        H433   1.078       .  S
C437        C438   1.377       .  D
C437        H439   1.086       .  S
C438        H440   1.075       .  S
C441        C442   1.378   1_556  D
C441        H443   1.077       .  S
C445        C446   1.360       .  D
C445        H447   1.087       .  S
C446        H448   1.085       .  S
C449        C450   1.353       .  D
C449        H451   1.086       .  S
C450        H452   1.086       .  S
C453        C454   1.350       .  D
C453        H455   1.085       .  S
C454        H456   1.085       .  S
C457        C458   1.358       .  D
C457        H459   1.087       .  S
C458        H460   1.084       .  S
C461        C462   1.338       .  D
C461        H463   1.084       .  S
C462        H464   1.088       .  S
C465        C466   1.340       .  D
C465        H467   1.086       .  S
C466        H468   1.087       .  S
C469        C470   1.195       .  T
C470        C979   1.397       .  S
C471        C472   1.201       .  T
C471        C978   1.396       .  S
C473        C474   1.195       .  T
C474        C983   1.392       .  S
C475        C476   1.202       .  T
C475        C982   1.398       .  S
C477        C478   1.352       .  D
C477        H479   1.083       .  S
C478        H480   1.085       .  S
C481        C482   1.358       .  D
C481        H483   1.086       .  S
C482        H484   1.086       .  S
C485        C486   1.357       .  D
C485        H487   1.085       .  S
C486        H488   1.087       .  S
C489        C490   1.347   1_556  D
C489        H491   1.087       .  S
C490        H492   1.086       .  S
C493        C494   1.344       .  D
C494        H496   1.085       .  S
C497        C498   1.356       .  D
C498        H500   1.084       .  S
C501        C502   1.370       .  D
C501        H503   1.074       .  S
C502        H504   1.086       .  S
C505        C506   1.378       .  D
C505        H507   1.086       .  S
C506        H508   1.081       .  S
C509        C511   1.576       .  S
C509        C513   1.590       .  S
C509        C512   1.579       .  S
C509        C759   1.609       .  S
C510        C514   1.546       .  S
C510        C516   1.551       .  S
C510        C515   1.536       .  S
C510        C755   1.588       .  S
C511        C519   1.405       .  A
C511        C768   1.406   1_554  A
C512        C523   1.398       .  A
C512        C769   1.405   1_554  A
C513        C527   1.409       .  A
C513        C770   1.408   1_554  A
C514        C765   1.417       .  A
C514        C517   1.386       .  A
C515        C766   1.396       .  A
C515        C521   1.371       .  A
C516        C767   1.435       .  A
C516        C524   1.374       .  A
C517        N518   1.356       .  A
C517        H530   1.083       .  S
N518        C773   1.352       .  A
N518        C743   1.441       .  S
C519        N772   1.372   1_554  A
C519        H520   1.081       .  S
C521        N522   1.360       .  A
C521        H531   1.081       .  S
N522        C777   1.356       .  A
N522        C751   1.435       .  S
C523        N776   1.375   1_554  A
C523        H529   1.082       .  S
C524        N779   1.354       .  A
C524        H526   1.077       .  S
N525        C778   1.350       .  A
N525        C527   1.377   1_556  A
N525       C1001   1.460       .  S
C527        H528   1.080       .  S
C532        C534   1.532       .  S
C532        C536   1.537       .  S
C532        C535   1.535       .  S
C532        C756   1.584       .  S
C533        C537   1.541       .  S
C533        C539   1.556       .  S
C533        C538   1.552       .  S
C533        C760   1.608       .  S
C534        C542   1.363       .  A
C534        C537   1.414       .  A
C535        C546   1.368       .  A
C535        C538   1.421       .  A
C536        C550   1.381       .  A
C536        C539   1.410       .  A
C537        C540   1.374       .  A
C538        C544   1.371       .  A
C539        C547   1.376       .  A
C540        N541   1.358       .  A
C540        H553   1.082       .  S
N541        C542   1.356       .  A
N541        C732   1.429       .  S
C542        H543   1.083       .  S
C544        N545   1.361       .  A
C544        H554   1.083       .  S
N545        C546   1.354       .  A
N545        C740   1.430       .  S
C546        H552   1.079       .  S
C547        N548   1.360       .  A
C547        H549   1.082       .  S
N548        C550   1.357       .  A
N548        C735   1.438       .  S
C550        H551   1.082       .  S
N555        N556   1.319       .  A
N555        N561   1.321       .  A
N555       Mn584   2.293       .  S
N556        C563   1.352       .  A
N557        N559   1.317       .  A
N557        N558   1.327       .  A
N557       Mn573   2.239       .  S
N558        C564   1.356       .  A
N559        N560   1.317       .  A
N559       Mn584   2.316       .  S
N560        C564   1.349       .  A
N561        N562   1.317       .  A
N561       Mn573   2.268       .  S
N562        C563   1.350       .  A
C563        C752   1.464       .  S
C564        C712   1.487       .  S
N565       N1079   1.311       .  A
N565        N566   1.337       .  A
N565       Mn595   2.294   1_545  S
N567        N568   1.330       .  A
N567        N569   1.313   1_445  A
N568        C575   1.363   1_545  A
N569        N570   1.330   1_655  A
N569      Mn1611   2.204       .  S
N570        C575   1.351       .  A
N571       N1073   1.304       .  A
N571        N572   1.310       .  A
N571       Mn573   2.227   1_655  S
N572       C1590   1.344       .  A
Mn573     Cl1613   2.626   1_455  S
C574       N1588   1.348       .  A
C574        C726   1.443       .  S
C575        C719   1.520       .  S
N576        N577   1.322       .  A
N576        N582   1.320       .  A
N576      Mn1600   2.182       .  S
N577        C585   1.344       .  A
N578       N1088   1.305       .  A
N578        N579   1.316       .  A
N578       Mn850   2.139   1_554  S
N579        C586   1.328       .  A
N580       N1086   1.298   1_556  A
N580        N581   1.310       .  A
N580       Mn838   2.163       .  S
N581       C1094   1.332   1_556  A
N582        N583   1.326       .  A
N583        C585   1.348       .  A
Mn584      N1592   2.263   1_455  S
Mn584       N834   2.243       .  S
Mn584     Cl1613   2.610   1_455  S
C585        C744   1.477       .  S
C586       N1089   1.351       .  A
C586        C730   1.445       .  S
N587        N588   1.313       .  A
N587        N593   1.321       .  A
N587       Mn595   2.212       .  S
N588        C598   1.343       .  A
N589        N590   1.314       .  A
N589        N591   1.321       .  A
N589       Mn596   2.222       .  S
N590        C599   1.345       .  A
N591        N592   1.322       .  A
N591       Mn595   2.183       .  S
N592        C599   1.355       .  A
N593        N594   1.322       .  A
N593       Mn596   2.189       .  S
N594        C598   1.354       .  A
Mn595      N1585   2.309       .  S
Mn596       N832   2.300       .  S
Cl597     Mn1589   2.627       .  S
Cl597     Mn1600   2.622       .  S
C598        C748   1.454       .  S
C599        C715   1.458       .  S
N600        N601   1.324       .  A
N600        N606   1.310       .  A
N600       Mn629   2.334       .  S
N601        C608   1.361       .  A
N602        N604   1.306       .  A
N602        N603   1.317       .  A
N602       Mn618   2.186       .  S
N603        C609   1.351       .  A
N604        N605   1.316       .  A
N604       Mn629   2.274       .  S
N605        C609   1.348       .  A
N606        N607   1.306       .  A
N606       Mn618   2.166       .  S
N607        C608   1.342       .  A
C608        C739   1.472       .  S
C609        C700   1.455       .  S
N610       N1124   1.311       .  A
N610        N611   1.328       .  A
N610       Mn640   2.303   1_545  S
N612        N613   1.316       .  A
N612        N614   1.318       .  A
N613        C620   1.341       .  A
N614        N615   1.322       .  A
N614      Mn1656   2.228   1_455  S
N615        C620   1.345       .  A
N616       N1118   1.309       .  A
N616        N617   1.319       .  A
N616       Mn618   2.099       .  S
N617       C1635   1.328       .  A
Mn618     Cl1658   2.491       .  S
C619       N1633   1.328       .  A
C619        C727   1.451       .  S
C620        C707   1.463       .  S
N621        N622   1.319       .  A
N621        N627   1.316       .  A
N621      Mn1645   2.303       .  S
N622        C630   1.341       .  A
N623       N1133   1.321       .  A
N623        N624   1.315       .  A
N623       Mn641   2.174   1_545  S
N624        C631   1.340       .  A
N625       N1131   1.314       .  A
N625        N626   1.331       .  A
N625       Mn629   2.306       .  S
N626       C1139   1.348       .  A
N627        N628   1.320       .  A
N628        C630   1.344       .  A
Mn629      N1637   2.324   1_455  S
Mn629     Cl1658   2.686       .  S
C630        C731   1.458       .  S
C631       N1134   1.330       .  A
C631        C723   1.440       .  S
N632        N633   1.312       .  A
N632        N638   1.318       .  A
N632       Mn640   2.188       .  S
N633        C643   1.341       .  A
N634        N635   1.317       .  A
N634        N636   1.313       .  A
N634       Mn641   2.208       .  S
N635        C644   1.350       .  A
N636        N637   1.326       .  A
N636       Mn640   2.222       .  S
N637        C644   1.356       .  A
N638        N639   1.329       .  A
N638       Mn641   2.216       .  S
N639        C643   1.360       .  A
Mn640      N1630   2.235       .  S
Cl642     Mn1634   2.495       .  S
Cl642     Mn1645   2.698       .  S
C643        C736   1.486       .  S
C644        C703   1.476       .  S
C645        C647   1.576       .  S
C645        C649   1.548       .  S
C645        C648   1.563       .  S
C645        C691   1.594       .  S
C646        C650   1.560       .  S
C646        C652   1.529       .  S
C646        C651   1.526       .  S
C646        C695   1.591       .  S
C647        C655   1.401       .  A
C647        C650   1.414       .  A
C648        C659   1.394       .  A
C648        C651   1.410       .  A
C649        C663   1.383       .  A
C649        C652   1.407       .  A
C650        C653   1.387       .  A
C651        C657   1.363       .  A
C652        C660   1.361       .  A
C653        N654   1.365       .  A
C653        H666   1.080       .  S
N654        C655   1.371       .  A
N654        C720   1.465       .  S
C655        H656   1.082       .  S
C657        N658   1.352       .  A
C657        H667   1.083       .  S
N658        C659   1.368       .  A
N658        C711   1.440       .  S
C659        H665   1.082       .  S
C660        N661   1.358       .  A
C660        H662   1.078       .  S
N661        C663   1.358       .  A
N661        C716   1.438       .  S
C663        H664   1.081       .  S
C668        C670   1.540       .  S
C668        C672   1.551       .  S
C668        C671   1.551       .  S
C668        C950   1.591       .  S
C669        C673   1.532       .  S
C669        C675   1.551       .  S
C669        C674   1.528       .  S
C669        C692   1.594       .  S
C670        C678   1.373       .  A
C670        C673   1.416       .  A
C671        C682   1.382       .  A
C671        C674   1.422       .  A
C672        C686   1.387       .  A
C672        C675   1.418       .  A
C673        C676   1.366       .  A
C674        C680   1.365       .  A
C675        C683   1.374       .  A
C676        N677   1.353       .  A
C676        H689   1.083       .  S
N677        C678   1.355       .  A
N677        C708   1.421       .  S
C678        H679   1.082       .  S
C680        N681   1.351       .  A
C680        H690   1.081       .  S
N681        C682   1.352       .  A
N681        C699   1.432       .  S
C682        H688   1.083       .  S
C683        N684   1.360       .  A
C683        H685   1.080       .  S
N684        C686   1.361       .  A
N684        C704   1.450       .  S
C686        H687   1.082       .  S
C691        C692   1.387       .  D
C691        H693   1.085       .  S
C692        H694   1.081       .  S
C695        C696   1.389       .  D
C695        H697   1.078       .  S
C696        C922   1.596       .  S
C696        H952   1.086       .  S
H698        C950   1.085   1_556  S
C699        C700   1.340       .  D
C699        H701   1.087       .  S
C700        H702   1.084       .  S
C703        C704   1.349       .  D
C703        H705   1.082       .  S
C704        H706   1.087       .  S
C707        C708   1.338       .  D
C707        H709   1.087       .  S
C708        H710   1.086       .  S
C711        C712   1.346       .  D
C711        H713   1.088       .  S
C712        H714   1.085       .  S
C715        C716   1.339       .  D
C715        H717   1.083       .  S
C716        H718   1.087       .  S
C719        C720   1.365       .  D
C719        H721   1.085       .  S
C720        H722   1.086       .  S
C723        C724   1.204       .  T
C725        C726   1.207       .  T
C727        C728   1.214       .  T
C729        C730   1.209       .  T
C731        C732   1.339       .  D
C731        H733   1.086       .  S
C732        H734   1.087       .  S
C735        C736   1.355       .  D
C735        H737   1.087       .  S
C736        H738   1.085       .  S
C739        C740   1.354       .  D
C739        H741   1.083       .  S
C740        H742   1.087       .  S
C743        C744   1.348       .  D
C743        H745   1.087       .  S
C744        H746   1.086       .  S
C747        N779   1.434       .  S
C747        C748   1.334       .  D
C747       H1003   1.087       .  S
C748        H750   1.085       .  S
H749       C1001   1.086       .  S
C751        C752   1.341       .  D
C751       H1007   1.087       .  S
C752        H754   1.084       .  S
H753       C1005   1.086       .  S
C755        C756   1.379       .  D
C755        H757   1.084       .  S
C756        H758   1.077       .  S
C759        C760   1.390       .  D
C759        H761   1.085       .  S
C760        H762   1.077       .  S
C763        C765   1.545       .  S
C763        C767   1.549       .  S
C763        C766   1.525       .  S
C763       C1013   1.569       .  S
C764        C768   1.545       .  S
C764        C770   1.520       .  S
C764        C769   1.523       .  S
C764       C1009   1.567       .  S
C765        C773   1.382       .  A
C766        C777   1.372       .  A
C767        C781   1.378       .  A
C768        C771   1.379       .  A
C769        C775   1.372       .  A
C770        C778   1.365       .  A
C771        N772   1.361       .  A
C771        H784   1.073       .  S
N772        C997   1.464       .  S
C773        H774   1.081       .  S
C775        N776   1.353       .  A
C775        H785   1.080       .  S
N776       C1005   1.456       .  S
C777        H783   1.083       .  S
C778        H780   1.077       .  S
N779        C781   1.345       .  A
C781        H782   1.078       .  S
C786        C788   1.554       .  S
C786        C790   1.552       .  S
C786        C789   1.549       .  S
C786       C1010   1.569       .  S
C787        C791   1.532       .  S
C787        C793   1.541       .  S
C787        C792   1.542       .  S
C787       C1014   1.568       .  S
C788        C796   1.393       .  A
C788        C791   1.404       .  A
C789        C800   1.388       .  A
C789        C792   1.421       .  A
C790        C804   1.382       .  A
C790        C793   1.403       .  A
C791        C794   1.367       .  A
C792        C798   1.377       .  A
C793        C801   1.382       .  A
C794        N795   1.349       .  A
C794        H807   1.077       .  S
N795        C796   1.361       .  A
N795        C986   1.440       .  S
C796        H797   1.079       .  S
C798        N799   1.354       .  A
C798        H808   1.083       .  S
N799        C800   1.358       .  A
N799        C994   1.442       .  S
C800        H806   1.082       .  S
C801        N802   1.360       .  A
C801        H803   1.082       .  S
N802        C804   1.359       .  A
N802        C989   1.439       .  S
C804        H805   1.079       .  S
N809        N810   1.316       .  A
N809        N815   1.301       .  A
N809       Mn838   2.121       .  S
N810        C817   1.341       .  A
N811        N813   1.317       .  A
N811        N812   1.313       .  A
N811       Mn827   2.227       .  S
N812        C818   1.345       .  A
N813        N814   1.320       .  A
N813       Mn838   2.185       .  S
N814        C818   1.355       .  A
N815        N816   1.333       .  A
N815       Mn827   2.261       .  S
N816        C817   1.369       .  A
C817       C1006   1.495       .  S
C818        C966   1.463       .  S
N819       N1333   1.311       .  A
N819        N820   1.332       .  A
N819       Mn849   2.304   1_545  S
N821        N822   1.323       .  A
N821        N823   1.314       .  A
N822        C829   1.353       .  A
N823        N824   1.313       .  A
N823      Mn1865   2.146   1_455  S
N824        C829   1.344       .  A
N825       N1327   1.312       .  A
N825        N826   1.341       .  A
N825       Mn827   2.255   1_655  S
N826       C1844   1.343       .  A
Mn827     Cl1867   2.654   1_455  S
C828       N1842   1.340       .  A
C828        C980   1.434       .  S
C829        C973   1.463       .  S
N830        N831   1.330       .  A
N830        N836   1.319       .  A
N830      Mn1854   2.250       .  S
N831        C839   1.355   1_556  A
N832       N1342   1.311       .  A
N832        N833   1.336       .  A
N833        C840   1.336       .  A
N834       N1340   1.312       .  A
N834        N835   1.325       .  A
N835       C1348   1.331       .  A
N836        N837   1.331   1_556  A
N837        C839   1.364       .  A
Mn838      N1846   2.234   1_455  S
Mn838     Cl1867   2.515   1_455  S
C839        C998   1.520       .  S
C840       N1343   1.335       .  A
C840        C984   1.429       .  S
N841        N842   1.331       .  A
N841        N847   1.308       .  A
N841       Mn849   2.272       .  S
N842        C852   1.367       .  A
N843        N844   1.316       .  A
N843        N845   1.309       .  A
N843       Mn850   2.167       .  S
N844        C853   1.353       .  A
N845        N846   1.320       .  A
N845       Mn849   2.215       .  S
N846        C853   1.350       .  A
N847        N848   1.320       .  A
N847       Mn850   2.145       .  S
N848        C852   1.345       .  A
Mn849      N1839   2.251       .  S
Cl851     Mn1843   2.654       .  S
Cl851     Mn1854   2.534       .  S
C852       C1002   1.496       .  S
C853        C969   1.471       .  S
N854        N855   1.331       .  A
N854        N860   1.312       .  A
N854       Mn883   2.264       .  S
N855        C862   1.361       .  A
N856        N858   1.313       .  A
N856        N857   1.338       .  A
N856       Mn872   2.295       .  S
N857        C863   1.374       .  A
N858        N859   1.307       .  A
N858       Mn883   2.125       .  S
N859        C863   1.336       .  A
N860        N861   1.311       .  A
N860       Mn872   2.136       .  S
N861        C862   1.341       .  A
C862        C993   1.476       .  S
C863        C954   1.498       .  S
N864       N1378   1.331       .  A
N864        N865   1.323       .  A
N864       Mn894   2.187       .  S
N866        N867   1.324       .  A
N866        N868   1.321       .  A
N867        C874   1.349       .  A
N868        N869   1.326       .  A
N868      Mn1910   2.223   1_455  S
N869        C874   1.352       .  A
N870       N1372   1.328       .  A
N870        N871   1.319       .  A
N870       Mn872   2.154       .  S
N871       C1889   1.342       .  A
Mn872     Cl1912   2.549       .  S
C873       N1887   1.344       .  A
C873        C981   1.432       .  S
C874        C961   1.487       .  S
N875        N876   1.319       .  A
N875        N881   1.316       .  A
N875      Mn1899   2.187       .  S
N876        C884   1.347       .  A
N877       N1387   1.332       .  A
N877        N878   1.327       .  A
N877       Mn895   2.189   1_545  S
N878        C885   1.340       .  A
N879       N1385   1.328       .  A
N879        N880   1.327       .  A
N879       Mn883   2.176   1_655  S
N880       C1393   1.338       .  A
N881        N882   1.321       .  A
N882        C884   1.350       .  A
Mn883      N1891   2.189   1_455  S
Mn883     Cl1912   2.525       .  S
C884        C985   1.465       .  S
C885       N1388   1.343       .  A
C885        C977   1.432       .  S
N886        N887   1.313       .  A
N886        N892   1.314       .  A
N886       Mn894   2.134       .  S
N887        C897   1.339       .  A
N888        N889   1.311       .  A
N888        N890   1.316       .  A
N888       Mn895   2.139       .  S
N889        C898   1.338       .  A
N890        N891   1.335       .  A
N890       Mn894   2.290       .  S
N891        C898   1.370       .  A
N892        N893   1.332       .  A
N892       Mn895   2.284       .  S
N893        C897   1.363       .  A
Mn894      N1884   2.202       .  S
Cl896     Mn1888   2.539       .  S
Cl896     Mn1899   2.519       .  S
C897        C990   1.484       .  S
C898        C957   1.500       .  S
C899        C901   1.545       .  S
C899        C903   1.551       .  S
C899        C902   1.555       .  S
C899        C945   1.604       .  S
C900        C904   1.529       .  S
C900        C906   1.539       .  S
C900        C905   1.536       .  S
C900        C949   1.594       .  S
C901        C909   1.372       .  A
C901        C904   1.412       .  A
C902        C913   1.377       .  A
C902        C905   1.424       .  A
C903        C917   1.385       .  A
C903        C906   1.417       .  A
C904        C907   1.369       .  A
C905        C911   1.370       .  A
C906        C914   1.365       .  A
C907        N908   1.353       .  A
C907        H920   1.082       .  S
N908        C909   1.355       .  A
N908        C974   1.424       .  S
C909        H910   1.079       .  S
C911        N912   1.351       .  A
C911        H921   1.082       .  S
N912        C913   1.363       .  A
N912        C965   1.437       .  S
C913        H919   1.081       .  S
C914        N915   1.350       .  A
C914        H916   1.082       .  S
N915        C917   1.362       .  A
N915        C970   1.432       .  S
C917        H918   1.079       .  S
C922        C924   1.561       .  S
C922        C926   1.549       .  S
C922        C925   1.555       .  S
C923        C927   1.544       .  S
C923        C929   1.558       .  S
C923        C928   1.560       .  S
C923        C946   1.599       .  S
C924        C932   1.392       .  A
C924        C927   1.412       .  A
C925        C936   1.382       .  A
C925        C928   1.418       .  A
C926        C940   1.384       .  A
C926        C929   1.409       .  A
C927        C930   1.378       .  A
C928        C934   1.391       .  A
C929        C937   1.389       .  A
C930        N931   1.356       .  A
C930        H943   1.079       .  S
N931        C932   1.364       .  A
N931        C962   1.449       .  S
C932        H933   1.079       .  S
C934        N935   1.367       .  A
C934        H944   1.082       .  S
N935        C936   1.359       .  A
N935        C953   1.445       .  S
C936        H942   1.083       .  S
C937        N938   1.364       .  A
C937        H939   1.082       .  S
N938        C940   1.359       .  A
N938        C958   1.444       .  S
C940        H941   1.080       .  S
C945        C946   1.389       .  D
C945        H947   1.086       .  S
C946        H948   1.079       .  S
C949        C950   1.378   1_556  D
C949        H951   1.083       .  S
C953        C954   1.364       .  D
C953        H955   1.087       .  S
C954        H956   1.085       .  S
C957        C958   1.362       .  D
C957        H959   1.085       .  S
C958        H960   1.086       .  S
C961        C962   1.353       .  D
C961        H963   1.085       .  S
C962        H964   1.086       .  S
C965        C966   1.336       .  D
C965        H967   1.088       .  S
C966        H968   1.083       .  S
C969        C970   1.339       .  D
C969        H971   1.085       .  S
C970        H972   1.088       .  S
C973        C974   1.340       .  D
C973        H975   1.086       .  S
C974        H976   1.087       .  S
C977        C978   1.197       .  T
C979        C980   1.200       .  T
C981        C982   1.197       .  T
C983        C984   1.199       .  T
C985        C986   1.348       .  D
C985        H987   1.084       .  S
C986        H988   1.087       .  S
C989        C990   1.352       .  D
C989        H991   1.087       .  S
C990        H992   1.086       .  S
C993        C994   1.350       .  D
C993        H995   1.084       .  S
C994        H996   1.089       .  S
C997        C998   1.364   1_556  D
C997        H999   1.086       .  S
C998       H1000   1.086       .  S
C1001      C1002   1.369       .  D
C1002      H1004   1.082       .  S
C1005      C1006   1.368       .  D
C1006      H1008   1.083       .  S
C1009      C1010   1.377       .  D
C1009      H1011   1.077       .  S
C1010      H1012   1.086       .  S
C1013      C1014   1.374       .  D
C1013      H1015   1.084       .  S
C1014      H1016   1.081       .  S
C1017      C1019   1.542       .  S
C1017      C1021   1.556       .  S
C1017      C1020   1.544       .  S
C1017      C1267   1.573       .  S
C1018      C1022   1.535       .  S
C1018      C1024   1.539       .  S
C1018      C1023   1.541       .  S
C1018      C1263   1.586       .  S
C1019      C1027   1.381       .  A
C1019      C1276   1.405   1_554  A
C1020      C1031   1.382       .  A
C1020      C1277   1.405   1_554  A
C1021      C1035   1.388       .  A
C1021      C1278   1.422   1_554  A
C1022      C1273   1.411       .  A
C1022      C1025   1.375       .  A
C1023      C1274   1.426       .  A
C1023      C1029   1.377       .  A
C1024      C1275   1.412       .  A
C1024      C1032   1.364       .  A
C1025      N1026   1.358       .  A
C1025      H1038   1.082       .  S
N1026      C1281   1.356       .  A
N1026      C1251   1.431       .  S
C1027      N1280   1.361   1_554  A
C1027      H1028   1.083       .  S
C1029      N1030   1.353       .  A
C1029      H1039   1.083       .  S
N1030      C1285   1.352       .  A
N1030      C1259   1.429       .  S
C1031      N1284   1.361   1_554  A
C1031      H1037   1.082       .  S
C1032      N1287   1.349       .  A
C1032      H1034   1.082       .  S
N1033      C1286   1.354       .  A
N1033      C1035   1.352   1_556  A
N1033      C1509   1.437       .  S
C1035      H1036   1.081       .  S
C1040      C1042   1.553       .  S
C1040      C1044   1.566       .  S
C1040      C1043   1.548       .  S
C1040      C1264   1.585       .  S
C1041      C1045   1.531       .  S
C1041      C1047   1.536       .  S
C1041      C1046   1.519       .  S
C1041      C1268   1.567       .  S
C1042      C1050   1.379       .  A
C1042      C1045   1.412       .  A
C1043      C1054   1.378       .  A
C1043      C1046   1.404       .  A
C1044      C1058   1.396       .  A
C1044      C1047   1.411       .  A
C1045      C1048   1.370       .  A
C1046      C1052   1.363       .  A
C1047      C1055   1.365       .  A
C1048      N1049   1.360       .  A
C1048      H1061   1.082       .  S
N1049      C1050   1.360       .  A
N1049      C1240   1.439       .  S
C1050      H1051   1.082       .  S
C1052      N1053   1.351       .  A
C1052      H1062   1.083       .  S
N1053      C1054   1.362       .  A
N1053      C1248   1.428       .  S
C1054      H1060   1.082       .  S
C1055      N1056   1.351       .  A
C1055      H1057   1.079       .  S
N1056      C1058   1.369       .  A
N1056      C1243   1.447       .  S
C1058      H1059   1.080       .  S
N1063      N1064   1.314       .  A
N1063      N1069   1.309       .  A
N1063     Mn1092   2.320       .  S
N1064      C1071   1.352       .  A
N1065      N1067   1.309       .  A
N1065      N1066   1.313       .  A
N1065     Mn1081   2.282       .  S
N1066      C1072   1.347       .  A
N1067      N1068   1.317       .  A
N1067     Mn1092   2.370       .  S
N1068      C1072   1.354       .  A
N1069      N1070   1.312       .  A
N1069     Mn1081   2.311       .  S
N1070      C1071   1.349       .  A
C1071      C1260   1.447       .  S
C1072      C1220   1.449       .  S
N1073      N1074   1.320       .  A
N1073     Mn1103   2.111       .  S
N1074      C1590   1.330       .  A
N1075      N1076   1.323       .  A
N1075      N1077   1.323       .  A
N1075     Mn1589   2.208       .  S
N1076      C1083   1.355       .  A
N1077      N1078   1.323       .  A
N1078      C1083   1.355       .  A
N1079      N1080   1.326       .  A
N1079     Mn1081   2.314       .  S
Mn1081     N1583   2.315   1_545  S
C1082      N1582   1.337       .  A
C1082      C1234   1.439       .  S
C1083      C1227   1.484       .  S
N1084      N1085   1.317       .  A
N1084      N1090   1.322       .  A
N1085      C1093   1.345       .  A
N1086      N1087   1.331       .  A
N1086     Mn1358   2.176   1_454  S
N1087      C1094   1.366       .  A
N1088      N1089   1.314       .  A
N1088     Mn1346   2.222   1_564  S
N1090      N1091   1.321       .  A
N1090     Mn1612   2.201   1_545  S
N1091      C1093   1.345       .  A
Mn1092     N1342   2.288   1_545  S
C1093      C1252   1.461       .  S
C1094      C1238   1.437       .  S
N1095      N1096   1.315       .  A
N1095      N1101   1.308       .  A
N1095     Mn1103   2.142       .  S
N1096      C1106   1.348       .  A
N1097      N1098   1.325       .  A
N1097      N1099   1.304       .  A
N1097     Mn1104   2.217       .  S
N1098      C1107   1.359       .  A
N1099      N1100   1.311       .  A
N1099     Mn1103   2.111       .  S
N1100      C1107   1.341       .  A
N1101      N1102   1.321       .  A
N1101     Mn1104   2.232       .  S
N1102      C1106   1.348       .  A
Mn1103    Cl1613   2.463       .  S
Mn1104     N1340   2.298   1_655  S
Mn1104     N1598   2.249       .  S
Mn1104    Cl1613   2.641       .  S
Cl1105    Mn1611   2.474   1_545  S
Cl1105    Mn1612   2.539   1_545  S
C1106      C1256   1.467       .  S
C1107      C1223   1.462       .  S
N1108      N1109   1.319       .  A
N1108      N1114   1.307       .  A
N1108     Mn1137   2.184       .  S
N1109      C1116   1.352       .  A
N1110      N1112   1.313       .  A
N1110      N1111   1.323       .  A
N1110     Mn1126   2.278       .  S
N1111      C1117   1.358       .  A
N1112      N1113   1.311       .  A
N1112     Mn1137   2.232       .  S
N1113      C1117   1.349       .  A
N1114      N1115   1.314       .  A
N1114     Mn1126   2.299       .  S
N1115      C1116   1.353       .  A
C1116      C1247   1.464       .  S
C1117      C1208   1.475       .  S
N1118      N1119   1.310       .  A
N1118     Mn1148   2.254   1_455  S
N1119      C1635   1.346       .  A
N1120      N1121   1.319       .  A
N1120      N1122   1.322       .  A
N1120     Mn1634   2.228       .  S
N1121      C1128   1.350       .  A
N1122      N1123   1.322       .  A
N1123      C1128   1.349       .  A
N1124      N1125   1.332       .  A
N1124     Mn1126   2.299       .  S
Mn1126     N1628   2.267   1_545  S
C1127      N1627   1.346       .  A
C1127      C1235   1.434       .  S
C1128      C1215   1.464       .  S
N1129      N1130   1.324       .  A
N1129      N1135   1.320       .  A
N1130      C1138   1.354       .  A
N1131      N1132   1.330       .  A
N1131     Mn1149   2.324   1_455  S
N1132      C1139   1.337       .  A
N1133      N1134   1.318       .  A
N1133     Mn1137   2.110       .  S
N1135      N1136   1.318       .  A
N1135     Mn1657   2.265   1_545  S
N1136      C1138   1.347       .  A
C1138      C1239   1.467       .  S
C1139      C1231   1.432       .  S
N1140      N1141   1.324       .  A
N1140      N1146   1.317       .  A
N1140     Mn1148   2.259       .  S
N1141      C1151   1.360       .  A
N1142      N1143   1.315       .  A
N1142      N1144   1.315       .  A
N1142     Mn1149   2.187       .  S
N1143      C1152   1.343       .  A
N1144      N1145   1.331       .  A
N1144     Mn1148   2.232       .  S
N1145      C1152   1.361       .  A
N1146      N1147   1.318       .  A
N1146     Mn1149   2.185       .  S
N1147      C1151   1.346       .  A
Mn1148    Cl1658   2.595   1_655  S
Mn1149     N1643   2.201       .  S
Mn1149    Cl1658   2.525   1_655  S
Cl1150    Mn1656   2.659       .  S
Cl1150    Mn1657   2.451       .  S
C1151      C1244   1.476       .  S
C1152      C1211   1.497       .  S
C1153      C1155   1.552       .  S
C1153      C1157   1.561       .  S
C1153      C1156   1.548       .  S
C1153      C1199   1.588       .  S
C1154      C1158   1.540       .  S
C1154      C1160   1.521       .  S
C1154      C1159   1.532       .  S
C1154      C1203   1.584       .  S
C1155      C1163   1.383       .  A
C1155      C1158   1.412       .  A
C1156      C1167   1.381       .  A
C1156      C1159   1.412       .  A
C1157      C1171   1.389       .  A
C1157      C1160   1.412       .  A
C1158      C1161   1.373       .  A
C1159      C1165   1.360       .  A
C1160      C1168   1.356       .  A
C1161      N1162   1.358       .  A
C1161      H1174   1.081       .  S
N1162      C1163   1.361       .  A
N1162      C1228   1.439       .  S
C1163      H1164   1.082       .  S
C1165      N1166   1.350       .  A
C1165      H1175   1.073       .  S
N1166      C1167   1.357       .  A
N1166      C1219   1.430       .  S
C1167      H1173   1.082       .  S
C1168      N1169   1.348       .  A
C1168      H1170   1.078       .  S
N1169      C1171   1.364       .  A
N1169      C1224   1.434       .  S
C1171      H1172   1.079       .  S
C1176      C1178   1.545       .  S
C1176      C1180   1.551       .  S
C1176      C1179   1.538       .  S
C1176      C1458   1.574       .  S
C1177      C1181   1.528       .  S
C1177      C1183   1.553       .  S
C1177      C1182   1.542       .  S
C1177      C1200   1.583       .  S
C1178      C1186   1.375       .  A
C1178      C1181   1.406       .  A
C1179      C1190   1.374       .  A
C1179      C1182   1.411       .  A
C1180      C1194   1.390       .  A
C1180      C1183   1.414       .  A
C1181      C1184   1.372       .  A
C1182      C1188   1.370       .  A
C1183      C1191   1.373       .  A
C1184      N1185   1.353       .  A
C1184      H1197   1.082       .  S
N1185      C1186   1.358       .  A
N1185      C1216   1.429       .  S
C1186      H1187   1.082       .  S
C1188      N1189   1.359       .  A
C1188      H1198   1.083       .  S
N1189      C1190   1.358       .  A
N1189      C1207   1.432       .  S
C1190      H1196   1.082       .  S
C1191      N1192   1.359       .  A
C1191      H1193   1.083       .  S
N1192      C1194   1.363       .  A
N1192      C1212   1.444       .  S
C1194      H1195   1.082       .  S
C1199      C1200   1.380       .  D
C1199      H1201   1.086       .  S
C1200      H1202   1.077       .  S
C1203      C1204   1.371       .  D
C1203      H1205   1.085       .  S
C1204      C1430   1.566       .  S
C1204      H1460   1.071       .  S
H1206      C1458   1.081       .  S
C1207      C1208   1.349       .  D
C1207      H1209   1.087       .  S
C1208      H1210   1.085       .  S
C1211      C1212   1.356       .  D
C1211      H1213   1.086       .  S
C1212      H1214   1.087       .  S
C1215      C1216   1.338       .  D
C1215      H1217   1.086       .  S
C1216      H1218   1.087       .  S
C1219      C1220   1.346       .  D
C1219      H1221   1.087       .  S
C1220      H1222   1.085       .  S
C1223      C1224   1.352       .  D
C1223      H1225   1.084       .  S
C1224      H1226   1.087       .  S
C1227      C1228   1.346       .  D
C1227      H1229   1.086       .  S
C1228      H1230   1.087       .  S
C1231      C1232   1.205   1_455  T
C1232      C1741   1.411       .  S
C1233      C1234   1.211   1_565  T
C1233      C1740   1.419       .  S
C1235      C1236   1.205   1_655  T
C1236      C1745   1.410       .  S
C1237      C1238   1.211       .  T
C1237      C1744   1.418       .  S
C1239      C1240   1.341       .  D
C1239      H1241   1.085       .  S
C1240      H1242   1.087       .  S
C1243      C1244   1.358       .  D
C1243      H1245   1.086       .  S
C1244      H1246   1.083       .  S
C1247      C1248   1.338       .  D
C1247      H1249   1.085       .  S
C1248      H1250   1.088       .  S
C1251      C1252   1.342       .  D
C1251      H1253   1.088       .  S
C1252      H1254   1.085       .  S
C1255      N1287   1.429       .  S
C1255      C1256   1.337       .  D
C1255      H1511   1.088       .  S
C1256      H1258   1.086       .  S
H1257      C1509   1.087   1_554  S
C1259      C1260   1.341       .  D
C1259      H1515   1.087       .  S
C1260      H1262   1.081       .  S
H1261      C1513   1.087       .  S
C1263      C1264   1.373       .  D
C1263      H1265   1.078       .  S
C1264      H1266   1.086       .  S
C1267      C1268   1.367       .  D
C1267      H1269   1.085       .  S
C1268      H1270   1.074       .  S
C1271      C1273   1.544       .  S
C1271      C1275   1.542       .  S
C1271      C1274   1.533       .  S
C1271      C1521   1.591       .  S
C1272      C1276   1.547       .  S
C1272      C1278   1.534       .  S
C1272      C1277   1.536       .  S
C1272      C1517   1.575       .  S
C1273      C1281   1.367       .  A
C1274      C1285   1.360       .  A
C1275      C1289   1.381       .  A
C1276      C1279   1.378       .  A
C1277      C1283   1.371       .  A
C1278      C1286   1.369       .  A
C1279      N1280   1.357       .  A
C1279      H1292   1.082       .  S
N1280      C1505   1.439       .  S
C1281      H1282   1.079       .  S
C1283      N1284   1.359       .  A
C1283      H1293   1.083       .  S
N1284      C1513   1.439       .  S
C1285      H1291   1.080       .  S
C1286      H1288   1.081       .  S
N1287      C1289   1.360       .  A
C1289      H1290   1.080       .  S
C1294      C1296   1.569       .  S
C1294      C1298   1.549       .  S
C1294      C1297   1.550       .  S
C1294      C1518   1.580       .  S
C1295      C1299   1.544       .  S
C1295      C1301   1.554       .  S
C1295      C1300   1.561       .  S
C1295      C1522   1.586       .  S
C1296      C1304   1.398       .  A
C1296      C1299   1.409       .  A
C1297      C1308   1.387       .  A
C1297      C1300   1.412       .  A
C1298      C1312   1.386       .  A
C1298      C1301   1.404       .  A
C1299      C1302   1.380       .  A
C1300      C1306   1.388       .  A
C1301      C1309   1.388       .  A
C1302      N1303   1.357       .  A
C1302      H1315   1.077       .  S
N1303      C1304   1.367       .  A
N1303      C1494   1.457       .  S
C1304      H1305   1.079       .  S
C1306      N1307   1.368       .  A
C1306      H1316   1.082       .  S
N1307      C1308   1.360       .  A
N1307      C1502   1.453       .  S
C1308      H1314   1.082       .  S
C1309      N1310   1.363       .  A
C1309      H1311   1.082       .  S
N1310      C1312   1.361       .  A
N1310      C1497   1.446       .  S
C1312      H1313   1.082       .  S
N1317      N1318   1.327   1_556  A
N1317      N1323   1.316       .  A
N1317     Mn1346   2.236       .  S
N1318      C1325   1.358   1_554  A
N1319      N1321   1.321       .  A
N1319      N1320   1.321       .  A
N1319     Mn1335   2.309       .  S
N1320      C1326   1.354       .  A
N1321      N1322   1.321       .  A
N1321     Mn1346   2.271       .  S
N1322      C1326   1.354       .  A
N1323      N1324   1.313       .  A
N1323     Mn1335   2.302       .  S
N1324      C1325   1.345       .  A
C1325      C1514   1.485   1_556  S
C1326      C1474   1.476       .  S
N1327      N1328   1.337       .  A
N1327     Mn1357   2.192       .  S
N1328      C1844   1.324       .  A
N1329      N1330   1.327       .  A
N1329      N1331   1.324       .  A
N1329     Mn1843   2.219       .  S
N1330      C1337   1.348       .  A
N1331      N1332   1.323       .  A
N1332      C1337   1.342       .  A
N1333      N1334   1.323       .  A
N1333     Mn1335   2.223       .  S
Mn1335     N1837   2.256   1_545  S
C1336      N1836   1.328       .  A
C1336      C1488   1.438       .  S
C1337      C1481   1.479       .  S
N1338      N1339   1.323       .  A
N1338      N1344   1.312       .  A
N1339      C1347   1.354       .  A
N1340      N1341   1.332       .  A
N1341      C1348   1.350       .  A
N1342      N1343   1.326       .  A
N1344      N1345   1.321   1_556  A
N1344     Mn1866   2.166   1_545  S
N1345      C1347   1.351   1_554  A
C1347      C1506   1.478       .  S
C1348      C1492   1.437       .  S
N1349      N1350   1.317       .  A
N1349      N1355   1.309       .  A
N1349     Mn1357   2.196       .  S
N1350      C1360   1.348       .  A
N1351      N1352   1.311       .  A
N1351      N1353   1.323       .  A
N1351     Mn1358   2.168       .  S
N1352      C1361   1.342       .  A
N1353      N1354   1.318       .  A
N1353     Mn1357   2.238       .  S
N1354      C1361   1.357       .  A
N1355      N1356   1.321       .  A
N1355     Mn1358   2.165       .  S
N1356      C1360   1.355       .  A
Mn1357    Cl1867   2.628       .  S
Mn1358     N1852   2.313       .  S
Mn1358    Cl1867   2.636       .  S
Cl1359    Mn1865   2.528       .  S
Cl1359    Mn1866   2.529       .  S
C1360      C1510   1.467       .  S
C1361      C1477   1.446       .  S
N1362      N1363   1.337       .  A
N1362      N1368   1.316       .  A
N1362     Mn1391   2.292       .  S
N1363      C1370   1.371       .  A
N1364      N1366   1.313       .  A
N1364      N1365   1.328       .  A
N1364     Mn1380   2.255       .  S
N1365      C1371   1.361       .  A
N1366      N1367   1.312       .  A
N1366     Mn1391   2.140       .  S
N1367      C1371   1.343       .  A
N1368      N1369   1.312       .  A
N1368     Mn1380   2.135       .  S
N1369      C1370   1.337       .  A
C1370      C1501   1.502       .  S
C1371      C1462   1.477       .  S
N1372      N1373   1.329       .  A
N1372     Mn1402   2.194   1_455  S
N1373      C1889   1.338       .  A
N1374      N1375   1.320       .  A
N1374      N1376   1.320       .  A
N1374     Mn1888   2.184       .  S
N1375      C1382   1.347       .  A
N1376      N1377   1.321       .  A
N1377      C1382   1.349       .  A
N1378      N1379   1.322       .  A
N1378     Mn1380   2.161   1_565  S
Mn1380     N1882   2.208   1_545  S
C1381      N1881   1.351       .  A
C1381      C1489   1.433       .  S
C1382      C1469   1.467       .  S
N1383      N1384   1.326       .  A
N1383      N1389   1.323       .  A
N1384      C1392   1.350       .  A
N1385      N1386   1.317       .  A
N1385     Mn1403   2.177       .  S
N1386      C1393   1.343       .  A
N1387      N1388   1.319       .  A
N1387     Mn1391   2.182       .  S
N1389      N1390   1.328       .  A
N1389     Mn1911   2.206   1_545  S
N1390      C1392   1.352       .  A
C1392      C1493   1.494       .  S
C1393      C1485   1.429       .  S
N1394      N1395   1.312       .  A
N1394      N1400   1.316       .  A
N1394     Mn1402   2.144       .  S
N1395      C1405   1.338       .  A
N1396      N1397   1.313       .  A
N1396      N1398   1.315       .  A
N1396     Mn1403   2.136       .  S
N1397      C1406   1.341       .  A
N1398      N1399   1.332       .  A
N1398     Mn1402   2.287       .  S
N1399      C1406   1.359       .  A
N1400      N1401   1.336       .  A
N1400     Mn1403   2.284       .  S
N1401      C1405   1.370       .  A
Mn1402    Cl1912   2.527   1_655  S
Mn1403     N1897   2.200       .  S
Mn1403    Cl1912   2.544   1_655  S
Cl1404    Mn1910   2.555       .  S
Cl1404    Mn1911   2.563       .  S
C1405      C1498   1.497       .  S
C1406      C1465   1.487       .  S
C1407      C1409   1.545       .  S
C1407      C1411   1.538       .  S
C1407      C1410   1.535       .  S
C1407      C1453   1.568       .  S
C1408      C1412   1.556       .  S
C1408      C1414   1.536       .  S
C1408      C1413   1.542       .  S
C1408      C1457   1.576       .  S
C1409      C1417   1.372       .  A
C1409      C1412   1.415       .  A
C1410      C1421   1.379       .  A
C1410      C1413   1.400       .  A
C1411      C1425   1.374       .  A
C1411      C1414   1.415       .  A
C1412      C1415   1.390       .  A
C1413      C1419   1.376       .  A
C1414      C1422   1.365       .  A
C1415      N1416   1.364       .  A
C1415      H1428   1.081       .  S
N1416      C1417   1.353       .  A
N1416      C1482   1.442       .  S
C1417      H1418   1.081       .  S
C1419      N1420   1.361       .  A
C1419      H1429   1.081       .  S
N1420      C1421   1.360       .  A
N1420      C1473   1.443       .  S
C1421      H1427   1.083       .  S
C1422      N1423   1.355       .  A
C1422      H1424   1.080       .  S
N1423      C1425   1.349       .  A
N1423      C1478   1.428       .  S
C1425      H1426   1.078       .  S
C1430      C1432   1.547       .  S
C1430      C1434   1.546       .  S
C1430      C1433   1.556       .  S
C1431      C1435   1.526       .  S
C1431      C1437   1.548       .  S
C1431      C1436   1.533       .  S
C1431      C1454   1.564       .  S
C1432      C1440   1.386       .  A
C1432      C1435   1.400       .  A
C1433      C1444   1.390       .  A
C1433      C1436   1.414       .  A
C1434      C1448   1.381       .  A
C1434      C1437   1.409       .  A
C1435      C1438   1.366       .  A
C1436      C1442   1.376       .  A
C1437      C1445   1.375       .  A
C1438      N1439   1.351       .  A
C1438      H1451   1.081       .  S
N1439      C1440   1.363       .  A
N1439      C1470   1.437       .  S
C1440      H1441   1.082       .  S
C1442      N1443   1.353       .  A
C1442      H1452   1.083       .  S
N1443      C1444   1.359       .  A
N1443      C1461   1.442       .  S
C1444      H1450   1.081       .  S
C1445      N1446   1.359       .  A
C1445      H1447   1.083       .  S
N1446      C1448   1.360       .  A
N1446      C1466   1.434       .  S
C1448      H1449   1.080       .  S
C1453      C1454   1.374       .  D
C1453      H1455   1.084       .  S
C1454      H1456   1.079       .  S
C1457      C1458   1.366   1_556  D
C1457      H1459   1.086   1_556  S
C1461      C1462   1.350       .  D
C1461      H1463   1.089       .  S
C1462      H1464   1.084       .  S
C1465      C1466   1.351       .  D
C1465      H1467   1.085       .  S
C1466      H1468   1.086       .  S
C1469      C1470   1.348       .  D
C1469      H1471   1.085       .  S
C1470      H1472   1.086       .  S
C1473      C1474   1.347       .  D
C1473      H1475   1.087       .  S
C1474      H1476   1.084       .  S
C1477      C1478   1.333       .  D
C1477      H1479   1.082       .  S
C1478      H1480   1.088       .  S
C1481      C1482   1.350       .  D
C1481      H1483   1.086       .  S
C1482      H1484   1.087       .  S
C1485      C1486   1.196       .  T
C1486      C1995   1.398       .  S
C1487      C1488   1.204   1_545  T
C1487      C1994   1.404       .  S
C1489      C1490   1.201       .  T
C1490      C1999   1.401       .  S
C1491      C1492   1.202       .  T
C1491      C1998   1.398       .  S
C1493      C1494   1.357       .  D
C1493      H1495   1.084       .  S
C1494      H1496   1.087       .  S
C1497      C1498   1.361       .  D
C1497      H1499   1.087       .  S
C1498      H1500   1.085       .  S
C1501      C1502   1.367       .  D
C1501      H1503   1.085       .  S
C1502      H1504   1.087       .  S
C1505      C1506   1.343       .  D
C1505      H1507   1.087       .  S
C1506      H1508   1.086   1_556  S
C1509      C1510   1.341       .  D
C1510      H1512   1.085       .  S
C1513      C1514   1.352   1_556  D
C1514      H1516   1.085       .  S
C1517      C1518   1.373       .  D
C1517      H1519   1.076       .  S
C1518      H1520   1.086       .  S
C1521      C1522   1.379       .  D
C1521      H1523   1.086       .  S
C1522      H1524   1.080       .  S
C1525      C1527   1.573       .  S
C1525      C1529   1.564       .  S
C1525      C1528   1.569       .  S
C1525      C1775   1.589       .  S
C1526      C1530   1.531       .  S
C1526      C1532   1.547       .  S
C1526      C1531   1.547       .  S
C1526      C1771   1.586       .  S
C1527      C1535   1.399       .  A
C1527      C1784   1.416   1_554  A
C1528      C1539   1.394       .  A
C1528      C1785   1.399   1_554  A
C1529      C1543   1.401       .  A
C1529      C1786   1.404   1_554  A
C1530      C1781   1.404       .  A
C1530      C1533   1.373       .  A
C1531      C1782   1.416       .  A
C1531      C1537   1.378       .  A
C1532      C1783   1.416       .  A
C1532      C1540   1.375       .  A
C1533      N1534   1.352       .  A
C1533      H1546   1.082       .  S
N1534      C1789   1.358       .  A
N1534      C1759   1.434       .  S
C1535      N1788   1.371       .  A
C1535      H1536   1.082       .  S
C1537      N1538   1.350       .  A
C1537      H1547   1.074       .  S
N1538      C1793   1.364       .  A
N1538      C1767   1.441       .  S
C1539      N1792   1.370   1_554  A
C1539      H1545   1.082       .  S
C1540      N1795   1.363       .  A
C1540      H1542   1.081       .  S
N1541      C1794   1.353       .  A
N1541      C1543   1.369   1_556  A
N1541      C2017   1.448       .  S
C1543      H1544   1.080       .  S
C1548      C1550   1.538       .  S
C1548      C1552   1.543       .  S
C1548      C1551   1.539       .  S
C1548      C1772   1.581       .  S
C1549      C1553   1.552       .  S
C1549      C1555   1.530       .  S
C1549      C1554   1.551       .  S
C1549      C1776   1.594       .  S
C1550      C1558   1.382       .  A
C1550      C1553   1.424       .  A
C1551      C1562   1.372       .  A
C1551      C1554   1.418       .  A
C1552      C1566   1.377       .  A
C1552      C1555   1.417       .  A
C1553      C1556   1.373       .  A
C1554      C1560   1.386       .  A
C1555      C1563   1.371       .  A
C1556      N1557   1.351       .  A
C1556      H1569   1.083       .  S
N1557      C1558   1.350       .  A
N1557      C1748   1.430       .  S
C1558      H1559   1.080       .  S
C1560      N1561   1.361       .  A
C1560      H1570   1.082       .  S
N1561      C1562   1.349       .  A
N1561      C1756   1.440       .  S
C1562      H1568   1.077       .  S
C1563      N1564   1.352       .  A
C1563      H1565   1.078       .  S
N1564      C1566   1.353       .  A
N1564      C1751   1.434       .  S
C1566      H1567   1.083       .  S
N1571      N1572   1.314       .  A
N1571      N1577   1.322       .  A
N1571     Mn1600   2.210       .  S
N1572      C1579   1.342       .  A
N1573      N1575   1.316       .  A
N1573      N1574   1.327       .  A
N1573     Mn1589   2.206       .  S
N1574      C1580   1.357       .  A
N1575      N1576   1.317       .  A
N1575     Mn1600   2.197       .  S
N1576      C1580   1.343       .  A
N1577      N1578   1.328       .  A
N1577     Mn1589   2.262       .  S
N1578      C1579   1.361       .  A
C1579      C1768   1.475       .  S
C1580      C1728   1.479       .  S
N1581      N1582   1.310       .  A
N1581     Mn1611   2.160   1_545  S
N1583      N1584   1.324       .  A
N1583      N1585   1.323       .  A
N1584      C1591   1.349       .  A
N1585      N1586   1.331       .  A
N1586      C1591   1.355       .  A
N1587      N1588   1.311       .  A
N1587     Mn1589   2.221       .  S
C1590      C1742   1.443       .  S
C1591      C1735   1.495       .  S
N1592      N1593   1.318       .  A
N1592      N1598   1.321       .  A
N1593      C1601   1.344       .  A
N1594      N1595   1.312       .  A
N1594     Mn1866   2.248   1_444  S
N1595      C1602   1.345       .  A
N1596      N1597   1.310       .  A
N1596     Mn1854   2.157       .  S
N1598      N1599   1.324       .  A
N1599      C1601   1.349       .  A
Mn1600     N1850   2.207       .  S
C1601      C1760   1.471       .  S
C1602      C1746   1.442       .  S
N1603      N1604   1.312       .  A
N1603      N1609   1.303       .  A
N1603     Mn1611   2.109       .  S
N1604      C1614   1.342       .  A
N1605      N1606   1.329       .  A
N1605      N1607   1.305       .  A
N1605     Mn1612   2.226       .  S
N1606      C1615   1.365       .  A
N1607      N1608   1.313       .  A
N1607     Mn1611   2.159       .  S
N1608      C1615   1.344       .  A
N1609      N1610   1.327       .  A
N1609     Mn1612   2.260       .  S
N1610      C1614   1.364       .  A
Mn1612     N1848   2.199   1_665  S
C1614      C1764   1.471       .  S
C1615      C1731   1.481       .  S
N1616      N1617   1.326       .  A
N1616      N1622   1.314       .  A
N1616     Mn1645   2.339       .  S
N1617      C1624   1.363       .  A
N1618      N1620   1.304       .  A
N1618      N1619   1.308       .  A
N1618     Mn1634   2.145       .  S
N1619      C1625   1.344       .  A
N1620      N1621   1.319       .  A
N1620     Mn1645   2.291       .  S
N1621      C1625   1.352       .  A
N1622      N1623   1.311       .  A
N1622     Mn1634   2.197       .  S
N1623      C1624   1.346       .  A
C1624      C1755   1.475       .  S
C1625      C1716   1.447       .  S
N1626      N1627   1.345       .  A
N1626     Mn1656   2.262   1_545  S
N1628      N1629   1.318       .  A
N1628      N1630   1.316       .  A
N1629      C1636   1.342       .  A
N1630      N1631   1.319       .  A
N1631      C1636   1.348       .  A
N1632      N1633   1.317       .  A
N1632     Mn1634   2.131       .  S
C1635      C1743   1.449       .  S
C1636      C1723   1.460       .  S
N1637      N1638   1.320       .  A
N1637      N1643   1.314       .  A
N1638      C1646   1.346       .  A
N1639      N1640   1.321       .  A
N1639     Mn1657   2.150       .  S
N1640      C1647   1.334       .  A
N1641      N1642   1.330       .  A
N1641     Mn1645   2.293       .  S
N1643      N1644   1.318       .  A
N1644      C1646   1.342       .  A
C1646      C1747   1.458       .  S
C1647      C1739   1.449       .  S
N1648      N1649   1.323       .  A
N1648      N1654   1.300       .  A
N1648     Mn1656   2.197       .  S
N1649      C1659   1.353       .  A
N1650      N1651   1.307       .  A
N1650      N1652   1.312       .  A
N1650     Mn1657   2.136       .  S
N1651      C1660   1.342       .  A
N1652      N1653   1.324       .  A
N1652     Mn1656   2.254       .  S
N1653      C1660   1.361       .  A
N1654      N1655   1.314       .  A
N1654     Mn1657   2.125       .  S
N1655      C1659   1.346       .  A
C1659      C1752   1.466       .  S
C1660      C1719   1.472       .  S
C1661      C1663   1.546       .  S
C1661      C1665   1.562       .  S
C1661      C1664   1.558       .  S
C1661      C1707   1.583       .  S
C1662      C1666   1.555       .  S
C1662      C1668   1.529       .  S
C1662      C1667   1.533       .  S
C1662      C1711   1.575       .  S
C1663      C1671   1.382       .  A
C1663      C1666   1.408       .  A
C1664      C1675   1.385       .  A
C1664      C1667   1.407       .  A
C1665      C1679   1.389       .  A
C1665      C1668   1.410       .  A
C1666      C1669   1.384       .  A
C1667      C1673   1.373       .  A
C1668      C1676   1.367       .  A
C1669      N1670   1.365       .  A
C1669      H1682   1.080       .  S
N1670      C1671   1.359       .  A
N1670      C1736   1.448       .  S
C1671      H1672   1.082       .  S
C1673      N1674   1.361       .  A
C1673      H1683   1.082       .  S
N1674      C1675   1.361       .  A
N1674      C1727   1.447       .  S
C1675      H1681   1.077       .  S
C1676      N1677   1.353       .  A
C1676      H1678   1.077       .  S
N1677      C1679   1.367       .  A
N1677      C1732   1.444       .  S
C1679      H1680   1.080       .  S
C1684      C1686   1.541       .  S
C1684      C1688   1.531       .  S
C1684      C1687   1.538       .  S
C1684      C1966   1.570       .  S
C1685      C1689   1.538       .  S
C1685      C1691   1.548       .  S
C1685      C1690   1.519       .  S
C1685      C1708   1.582       .  S
C1686      C1694   1.371       .  A
C1686      C1689   1.419       .  A
C1687      C1698   1.372       .  A
C1687      C1690   1.403       .  A
C1688      C1702   1.371       .  A
C1688      C1691   1.412       .  A
C1689      C1692   1.367       .  A
C1690      C1696   1.359       .  A
C1691      C1699   1.371       .  A
C1692      N1693   1.354       .  A
C1692      H1705   1.083       .  S
N1693      C1694   1.356       .  A
N1693      C1724   1.421       .  S
C1694      H1695   1.083       .  S
C1696      N1697   1.353       .  A
C1696      H1706   1.079       .  S
N1697      C1698   1.353       .  A
N1697      C1715   1.422       .  S
C1698      H1704   1.082       .  S
C1699      N1700   1.360       .  A
C1699      H1701   1.083       .  S
N1700      C1702   1.356       .  A
N1700      C1720   1.430       .  S
C1702      H1703   1.081       .  S
C1707      C1708   1.379       .  D
C1707      H1709   1.086       .  S
C1708      H1710   1.079       .  S
C1711      C1712   1.382       .  D
C1711      H1713   1.074       .  S
C1712      C1938   1.584       .  S
C1712      H1968   1.086       .  S
H1714      C1966   1.072       .  S
C1715      C1716   1.339       .  D
C1715      H1717   1.087       .  S
C1716      H1718   1.079       .  S
C1719      C1720   1.350       .  D
C1719      H1721   1.084       .  S
C1720      H1722   1.088       .  S
C1723      C1724   1.334       .  D
C1723      H1725   1.087       .  S
C1724      H1726   1.086       .  S
C1727      C1728   1.345       .  D
C1727      H1729   1.085       .  S
C1728      H1730   1.085       .  S
C1731      C1732   1.359       .  D
C1731      H1733   1.083       .  S
C1732      H1734   1.087       .  S
C1735      C1736   1.352       .  D
C1735      H1737   1.086       .  S
C1736      H1738   1.086       .  S
C1739      C1740   1.212       .  T
C1741      C1742   1.208       .  T
C1743      C1744   1.212       .  T
C1745      C1746   1.207       .  T
C1747      C1748   1.337       .  D
C1747      H1749   1.087       .  S
C1748      H1750   1.087       .  S
C1751      C1752   1.346       .  D
C1751      H1753   1.087       .  S
C1752      H1754   1.083       .  S
C1755      C1756   1.356       .  D
C1755      H1757   1.083       .  S
C1756      H1758   1.087       .  S
C1759      C1760   1.341       .  D
C1759      H1761   1.088       .  S
C1760      H1762   1.085       .  S
C1763      N1795   1.445       .  S
C1763      C1764   1.338       .  D
C1763      H2019   1.087       .  S
C1764      H1766   1.084       .  S
H1765      C2017   1.088       .  S
C1767      C1768   1.336       .  D
C1767      H2023   1.087       .  S
C1768      H1770   1.086       .  S
H1769      C2021   1.086       .  S
C1771      C1772   1.375       .  D
C1771      H1773   1.082       .  S
C1772      H1774   1.075       .  S
C1775      C1776   1.377       .  D
C1775      H1777   1.084       .  S
C1776      H1778   1.085       .  S
C1779      C1781   1.549       .  S
C1779      C1783   1.555       .  S
C1779      C1782   1.554       .  S
C1779      C2029   1.591       .  S
C1780      C1784   1.575       .  S
C1780      C1786   1.529       .  S
C1780      C1785   1.526       .  S
C1780      C2025   1.579       .  S
C1781      C1789   1.380       .  A
C1782      C1793   1.383       .  A
C1783      C1797   1.385       .  A
C1784      C1787   1.398       .  A
C1785      C1791   1.377       .  A
C1786      C1794   1.366       .  A
C1787      N1788   1.372   1_556  A
C1787      H1800   1.077       .  S
N1788      C2013   1.477       .  S
C1789      H1790   1.074       .  S
C1791      N1792   1.356       .  A
C1791      H1801   1.080       .  S
N1792      C2021   1.455       .  S
C1793      H1799   1.082       .  S
C1794      H1796   1.083       .  S
N1795      C1797   1.354       .  A
C1797      H1798   1.075       .  S
C1802      C1804   1.557       .  S
C1802      C1806   1.560       .  S
C1802      C1805   1.563       .  S
C1802      C2026   1.588       .  S
C1803      C1807   1.530       .  S
C1803      C1809   1.547       .  S
C1803      C1808   1.541       .  S
C1803      C2030   1.581       .  S
C1804      C1812   1.392       .  A
C1804      C1807   1.405       .  A
C1805      C1816   1.396       .  A
C1805      C1808   1.425       .  A
C1806      C1820   1.388       .  A
C1806      C1809   1.407       .  A
C1807      C1810   1.367       .  A
C1808      C1814   1.375       .  A
C1809      C1817   1.386       .  A
C1810      N1811   1.352       .  A
C1810      H1823   1.072       .  S
N1811      C1812   1.360       .  A
N1811      C2002   1.443       .  S
C1812      H1813   1.077       .  S
C1814      N1815   1.354       .  A
C1814      H1824   1.083       .  S
N1815      C1816   1.363       .  A
N1815      C2010   1.448       .  S
C1816      H1822   1.082       .  S
C1817      N1818   1.360       .  A
C1817      H1819   1.082       .  S
N1818      C1820   1.364       .  A
N1818      C2005   1.449       .  S
C1820      H1821   1.082       .  S
N1825      N1826   1.319       .  A
N1825      N1831   1.301       .  A
N1825     Mn1854   2.149       .  S
N1826      C1833   1.346       .  A
N1827      N1829   1.320       .  A
N1827      N1828   1.318       .  A
N1827     Mn1843   2.257       .  S
N1828      C1834   1.350       .  A
N1829      N1830   1.319       .  A
N1829     Mn1854   2.188       .  S
N1830      C1834   1.353       .  A
N1831      N1832   1.330       .  A
N1831     Mn1843   2.236       .  S
N1832      C1833   1.363       .  A
C1833      C2022   1.493       .  S
C1834      C1982   1.469       .  S
N1835      N1836   1.321       .  A
N1835     Mn1865   2.146       .  S
N1837      N1838   1.315       .  A
N1837      N1839   1.320       .  A
N1838      C1845   1.343       .  A
N1839      N1840   1.324       .  A
N1840      C1845   1.351       .  A
N1841      N1842   1.341       .  A
N1841     Mn1843   2.257       .  S
C1844      C1996   1.434       .  S
C1845      C1989   1.467       .  S
N1846      N1847   1.325       .  A
N1846      N1852   1.317       .  A
N1847      C1855   1.351       .  A
N1848      N1849   1.318   1_545  A
N1849      C1856   1.338   1_565  A
N1850      N1851   1.340       .  A
N1852      N1853   1.342       .  A
N1853      C1855   1.371       .  A
C1855      C2014   1.531       .  S
C1856      C2000   1.435       .  S
N1857      N1858   1.318       .  A
N1857      N1863   1.323       .  A
N1857     Mn1865   2.186       .  S
N1858      C1868   1.349   1_556  A
N1859      N1860   1.319       .  A
N1859      N1861   1.309       .  A
N1859     Mn1866   2.200       .  S
N1860      C1869   1.348       .  A
N1861      N1862   1.324       .  A
N1861     Mn1865   2.195       .  S
N1862      C1869   1.349       .  A
N1863      N1864   1.330   1_556  A
N1863     Mn1866   2.275       .  S
N1864      C1868   1.358       .  A
C1868      C2018   1.499       .  S
C1869      C1985   1.472       .  S
N1870      N1871   1.333       .  A
N1870      N1876   1.313       .  A
N1870     Mn1899   2.281       .  S
N1871      C1878   1.365       .  A
N1872      N1874   1.313       .  A
N1872      N1873   1.335       .  A
N1872     Mn1888   2.283       .  S
N1873      C1879   1.373       .  A
N1874      N1875   1.308       .  A
N1874     Mn1899   2.122       .  S
N1875      C1879   1.334       .  A
N1876      N1877   1.312       .  A
N1876     Mn1888   2.137       .  S
N1877      C1878   1.341       .  A
C1878      C2009   1.485       .  S
C1879      C1970   1.493       .  S
N1880      N1881   1.326       .  A
N1880     Mn1910   2.190   1_455  S
N1882      N1883   1.323       .  A
N1882      N1884   1.318       .  A
N1883      C1890   1.350       .  A
N1884      N1885   1.324       .  A
N1885      C1890   1.352       .  A
N1886      N1887   1.319       .  A
N1886     Mn1888   2.185       .  S
C1889      C1997   1.432       .  S
C1890      C1977   1.481       .  S
N1891      N1892   1.321       .  A
N1891      N1897   1.317       .  A
N1892      C1900   1.348       .  A
N1893      N1894   1.318       .  A
N1893     Mn1911   2.179   1_545  S
N1894      C1901   1.347       .  A
N1895      N1896   1.327       .  A
N1895     Mn1899   2.177       .  S
N1897      N1898   1.323       .  A
N1898      C1900   1.352       .  A
C1900      C2001   1.474       .  S
C1901      C1993   1.435       .  S
N1902      N1903   1.312       .  A
N1902      N1908   1.318       .  A
N1902     Mn1910   2.132       .  S
N1903      C1913   1.337       .  A
N1904      N1905   1.312       .  A
N1904      N1906   1.319       .  A
N1904     Mn1911   2.148       .  S
N1905      C1914   1.340       .  A
N1906      N1907   1.334       .  A
N1906     Mn1910   2.283       .  S
N1907      C1914   1.364       .  A
N1908      N1909   1.337       .  A
N1908     Mn1911   2.309       .  S
N1909      C1913   1.371       .  A
C1913      C2006   1.489       .  S
C1914      C1973   1.496       .  S
C1915      C1917   1.546       .  S
C1915      C1919   1.558       .  S
C1915      C1918   1.540       .  S
C1915      C1961   1.587       .  S
C1916      C1920   1.528       .  S
C1916      C1922   1.538       .  S
C1916      C1921   1.554       .  S
C1916      C1965   1.579       .  S
C1917      C1925   1.374       .  A
C1917      C1920   1.404       .  A
C1918      C1929   1.371       .  A
C1918      C1921   1.413       .  A
C1919      C1933   1.388       .  A
C1919      C1922   1.416       .  A
C1920      C1923   1.373       .  A
C1921      C1927   1.382       .  A
C1922      C1930   1.367       .  A
C1923      N1924   1.354       .  A
C1923      H1936   1.083       .  S
N1924      C1925   1.355       .  A
N1924      C1990   1.431       .  S
C1925      H1926   1.080       .  S
C1927      N1928   1.357       .  A
C1927      H1937   1.078       .  S
N1928      C1929   1.359       .  A
N1928      C1981   1.440       .  S
C1929      H1935   1.081       .  S
C1930      N1931   1.356       .  A
C1930      H1932   1.080       .  S
N1931      C1933   1.362       .  A
N1931      C1986   1.444       .  S
C1933      H1934   1.080       .  S
C1938      C1940   1.564       .  S
C1938      C1942   1.551       .  S
C1938      C1941   1.558       .  S
C1939      C1943   1.532       .  S
C1939      C1945   1.546       .  S
C1939      C1944   1.551       .  S
C1939      C1962   1.584       .  S
C1940      C1948   1.397       .  A
C1940      C1943   1.406       .  A
C1941      C1952   1.393       .  A
C1941      C1944   1.421       .  A
C1942      C1956   1.384       .  A
C1942      C1945   1.405       .  A
C1943      C1946   1.367       .  A
C1944      C1950   1.380       .  A
C1945      C1953   1.384       .  A
C1946      N1947   1.351       .  A
C1946      H1959   1.079       .  S
N1947      C1948   1.364       .  A
N1947      C1978   1.448       .  S
C1948      H1949   1.077       .  S
C1950      N1951   1.360       .  A
C1950      H1960   1.083       .  S
N1951      C1952   1.363       .  A
N1951      C1969   1.450       .  S
C1952      H1958   1.082       .  S
C1953      N1954   1.361       .  A
C1953      H1955   1.082       .  S
N1954      C1956   1.358       .  A
N1954      C1974   1.440       .  S
C1956      H1957   1.079       .  S
C1961      C1962   1.379       .  D
C1961      H1963   1.086       .  S
C1962      H1964   1.079       .  S
C1965      C1966   1.368   1_556  D
C1965      H1967   1.086       .  S
C1969      C1970   1.359       .  D
C1969      H1971   1.088       .  S
C1970      H1972   1.085       .  S
C1973      C1974   1.359       .  D
C1973      H1975   1.085       .  S
C1974      H1976   1.086       .  S
C1977      C1978   1.352       .  D
C1977      H1979   1.085       .  S
C1978      H1980   1.086       .  S
C1981      C1982   1.343       .  D
C1981      H1983   1.087       .  S
C1982      H1984   1.083       .  S
C1985      C1986   1.348       .  D
C1985      H1987   1.083       .  S
C1986      H1988   1.087       .  S
C1989      C1990   1.344       .  D
C1989      H1991   1.085       .  S
C1990      H1992   1.087       .  S
C1993      C1994   1.202       .  T
C1995      C1996   1.201       .  T
C1997      C1998   1.198       .  T
C1999      C2000   1.201   1_565  T
C2001      C2002   1.347       .  D
C2001      H2003   1.085       .  S
C2002      H2004   1.087       .  S
C2005      C2006   1.359       .  D
C2005      H2007   1.087       .  S
C2006      H2008   1.085       .  S
C2009      C2010   1.351       .  D
C2009      H2011   1.085       .  S
C2010      H2012   1.089       .  S
C2013      C2014   1.365   1_554  D
C2013      H2015   1.086       .  S
C2014      H2016   1.086       .  S
C2017      C2018   1.351   1_556  D
C2018      H2020   1.085       .  S
C2021      C2022   1.362       .  D
C2022      H2024   1.083       .  S
C2025      C2026   1.391       .  D
C2025      H2027   1.074       .  S
C2026      H2028   1.086       .  S
C2029      C2030   1.382       .  D
C2029      H2031   1.086       .  S
C2030      H2032   1.070       .  S
