geometry optimzed in LAMMPS
_audit_creation_date              2020-11-30 
_audit_creation_method            'lammps2cif' 
_symmetry_space_group_name_H-M    'P1' 
_symmetry_Int_Tables_number       1 
_symmetry_cell_setting            triclinic 
loop_ 
_symmetry_equiv_pos_as_xyz 
  x,y,z 
_cell_length_a                    55.00498519574299 
_cell_length_b                    55.941664242104174 
_cell_length_c                    26.48885008440319 
_cell_angle_alpha                 89.9422014116527 
_cell_angle_beta                  90.53828670020508 
_cell_angle_gamma                 121.06344341594948 
loop_ 
_atom_site_label 
_atom_site_type_symbol 
_atom_site_fract_x 
_atom_site_fract_y 
_atom_site_fract_z 
_atom_site_charge 
O1          O  0.34196480  0.12662102  0.57637973    -0.86380
O2          O  0.28547724  0.11571256  0.84164040    -0.86550
O3          O  0.32868051  0.08550543  0.74222732    -0.88220
O4          O  0.26219873  0.08747076  0.66574477    -0.86970
O5          O  0.24942985  0.12013429  0.65118166    -0.86560
O6          O  0.37388103  0.11777658  0.76789009    -0.87930
O7          O  0.27536992  0.08459754  0.77689355    -0.86410
O8          O  0.31839929  0.09124809  0.63346031    -0.86000
Zr9        Zr  0.30745639  0.11009155  0.70792110     2.84310
O10         O  0.29001982  0.13629713  0.74416074    -1.07970
O11         O  0.35366478  0.13969595  0.68066406    -1.08700
C12         C  0.33097808  0.10112035  0.59083622     1.06730
C13         C  0.27162496  0.09127001  0.82160132     1.06670
C14         C  0.35243674  0.09227541  0.76372518     1.09650
C15         C  0.24594559  0.09539150  0.64664148     1.07430
H16         H  0.33477623  0.12253794  0.80298742     0.32990
O17         O  0.33579646  0.13510983  0.77704521    -1.28920
H18         H  0.29631912  0.12932427  0.61797298     0.32660
O19         O  0.30693781  0.13987663  0.64726478    -1.30600
O20         O  0.33434427  0.20400846  0.85858011    -0.86380
O21         O  0.38325808  0.21495544  0.58377429    -0.87870
O22         O  0.38953697  0.15924950  0.83592213    -0.86450
O23         O  0.25663629  0.16384328  0.74821365    -0.86500
O24         O  0.28263129  0.16744266  0.59323080    -0.86210
O25         O  0.41600027  0.17054742  0.68815504    -0.86020
O26         O  0.41124870  0.24634275  0.75307562    -0.86390
O27         O  0.34249570  0.24576963  0.68831079    -0.85850
O28         O  0.41581888  0.21176672  0.78954285    -0.86920
O29         O  0.29811743  0.21320761  0.65872493    -0.86070
O30         O  0.35128688  0.15561546  0.87737625    -0.86470
O31         O  0.39726688  0.17073398  0.61052634    -0.86190
O32         O  0.31950311  0.16757727  0.55254476    -0.85850
O33         O  0.27494801  0.16149780  0.82519200    -0.86250
O34         O  0.35895692  0.23954795  0.80222234    -0.86550
O35         O  0.39338661  0.24677770  0.64710201    -0.87890
Zr36       Zr  0.31945849  0.16162281  0.81321494     2.83100
Zr37       Zr  0.35265650  0.16931441  0.61900258     2.83500
Zr38       Zr  0.38207513  0.16532221  0.74984804     2.84090
Zr39       Zr  0.28882768  0.16598590  0.68272512     2.83360
Zr40       Zr  0.36407527  0.22121557  0.72112210     2.84220
O41         O  0.33496763  0.19561088  0.65351778    -1.08460
O42         O  0.36492749  0.19203618  0.78382637    -1.07960
C43         C  0.34780702  0.22984820  0.84603110     1.06700
C44         C  0.39623003  0.23997576  0.60159345     1.09320
C45         C  0.37546153  0.15604706  0.87611938     1.06870
C46         C  0.25608059  0.16261991  0.79710418     1.07230
C47         C  0.29561057  0.16707939  0.55339674     1.06820
C48         C  0.41660241  0.17147861  0.63960326     1.06370
C49         C  0.42241300  0.23763643  0.78501408     1.06790
C50         C  0.31964423  0.23860188  0.66321739     1.06310
H51         H  0.40147061  0.20776018  0.67668369     0.32980
O52         O  0.38222013  0.19520865  0.68734625    -1.29560
H53         H  0.31104880  0.20273145  0.76517919     0.33010
O54         O  0.31816370  0.19161203  0.75116816    -1.30940
C55         C  0.47917181  0.48104227  0.49215975     0.02390
C56         C  0.50211655  0.47688223  0.48855531     0.02390
C57         C  0.03065982  0.99962447  0.48761060     0.02390
C58         C  0.03674625  0.02795704  0.49282441     0.02390
C59         C  0.01198195  0.03102872  0.48944379     0.02390
C60         C  0.48371411  0.00782731  0.48694575     0.02390
C61         C  0.00781222  0.16798295  0.54555669     0.03240
C62         C  0.00619423  0.14233641  0.54261711    -0.12910
C63         C  0.02490609  0.13910098  0.51186656     0.00740
C64         C  0.04456679  0.16175330  0.48238245    -0.11440
C65         C  0.04497900  0.18703962  0.48348854     0.03230
C66         C  0.02742676  0.19025971  0.51678595    -0.10860
H67         H  0.98926004  0.12454882  0.56204583     0.08820
H68         H  0.05865982  0.15943340  0.45728139     0.06350
H69         H  0.02730191  0.20958569  0.51739746     0.06200
C70         C  0.15177329  0.45666526  0.48236710     0.03240
C71         C  0.17186294  0.98004932  0.51089146    -0.12910
C72         C  0.16681190  0.00162522  0.52365560     0.00740
C73         C  0.14148668  0.99943512  0.50793410    -0.11440
C74         C  0.12056948  0.97593620  0.48216901     0.03230
C75         C  0.12569057  0.45448349  0.46880438    -0.10860
H76         H  0.19169022  0.98169566  0.52183528     0.08820
H77         H  0.13751787  0.01601005  0.51710537     0.06350
H78         H  0.10988322  0.43664313  0.44729175     0.06200
C79         C  0.35382264  0.03467172  0.45273683     0.03240
C80         C  0.37956994  0.03517497  0.45830283    -0.12910
C81         C  0.38528582  0.01738675  0.42987891     0.00740
C82         C  0.36515543  0.00008989  0.39276187    -0.11440
C83         C  0.33918590  0.99944508  0.38622456     0.03230
C84         C  0.33375747  0.01646252  0.41719324    -0.10860
H85         H  0.39508216  0.04915515  0.48586910     0.08820
H86         H  0.36922207  0.48644369  0.37021864     0.06350
H87         H  0.31319015  0.01463295  0.41499198     0.06200
C88         C  0.01462951  0.34939250  0.40493257     0.03240
C89         C  0.49741167  0.32541065  0.43467286    -0.12910
C90         C  0.47620909  0.32439628  0.46576201     0.00740
C91         C  0.47245572  0.34715301  0.46733851    -0.11440
C92         C  0.49023708  0.37142259  0.44050249     0.03230
C93         C  0.01106342  0.37238862  0.40914617    -0.10860
H94         H  0.50050255  0.30780622  0.43386364     0.08820
H95         H  0.45626870  0.34638580  0.49154593     0.06350
H96         H  0.02488809  0.39133424  0.38859934     0.06200
C97         C  0.20119760  0.14700047  0.43584344     0.03680
C98         C  0.17587557  0.12475990  0.45598018    -0.12910
C99         C  0.14927658  0.12130655  0.44343594     0.00740
C100        C  0.14841972  0.14074841  0.41093967    -0.11440
C101        C  0.17334000  0.16409262  0.39356478     0.03230
C102        C  0.19948445  0.16643422  0.40441220    -0.10860
H103        H  0.17700377  0.11113810  0.48368908     0.08820
H104        H  0.12820845  0.13857332  0.40139200     0.06350
H105        H  0.21866307  0.18414655  0.38976786     0.06200
C106        C  0.33628527  0.33422081  0.54663470     0.03240
C107        C  0.36317312  0.35923309  0.54746353    -0.12910
C108        C  0.36875195  0.38150158  0.51525048     0.00740
C109        C  0.34683826  0.37968672  0.48563542    -0.11440
C110        C  0.32043186  0.35524276  0.48361386     0.03230
C111        C  0.31491321  0.33254231  0.51440572    -0.10860
H112        H  0.38003466  0.36100062  0.57158456     0.08820
H113        H  0.35072939  0.39714297  0.46199693     0.06350
H114        H  0.29453825  0.31329975  0.51155422     0.06200
O115        O  0.12666202  0.29224085  0.35759689    -0.86380
O116        O  0.11469784  0.32741794  0.08806922    -0.86550
O117        O  0.09140769  0.32773556  0.25705575    -0.88220
O118        O  0.08396317  0.25626234  0.18718709    -0.86970
O119        O  0.11513315  0.24200248  0.16761654    -0.86560
O120        O  0.12569007  0.37382787  0.26535308    -0.87930
O121        O  0.08352534  0.30512963  0.15296262    -0.86410
O122        O  0.09062960  0.27638351  0.29888111    -0.86000
Zr123      Zr  0.11122908  0.30257435  0.22142648     2.84310
O124        O  0.13470548  0.29616009  0.15486240    -1.07970
O125        O  0.14241662  0.33655951  0.27830456    -1.08700
C126        C  0.10075234  0.27635002  0.34307125     1.06730
C127        C  0.09009067  0.31661973  0.10922975     1.06670
C128        C  0.09991250  0.35278554  0.27123672     1.09650
C129        C  0.08999216  0.23885436  0.16826355     1.07430
H130        H  0.12748681  0.35278408  0.16916828     0.32990
O131        O  0.13895686  0.34537007  0.18055293    -1.28920
H132        H  0.12822697  0.26876125  0.26988644     0.32660
O133        O  0.13970184  0.28684233  0.25459489    -1.30600
O134        O  0.20613994  0.36766704  0.06824274    -0.86380
O135        O  0.21671568  0.33809462  0.34864015    -0.87870
O136        O  0.17260401  0.40704376  0.16541940    -0.86450
O137        O  0.15895944  0.26859439  0.09919627    -0.86500
O138        O  0.16534853  0.25400564  0.25711537    -0.86210
O139        O  0.17424849  0.39222035  0.32123519    -0.86020
O140        O  0.25173608  0.40429282  0.23232600    -0.86390
O141        O  0.24475483  0.33010582  0.18191985    -0.85850
O142        O  0.22080524  0.41786108  0.25750480    -0.86920
O143        O  0.20970017  0.28463500  0.16787235    -0.86070
O144        O  0.16668292  0.38209041  0.09327184    -0.86470
O145        O  0.17230274  0.35851985  0.37286828    -0.86190
O146        O  0.17141002  0.27780513  0.33163178    -0.85850
O147        O  0.15539809  0.30152696  0.05312454    -0.86250
O148        O  0.24224040  0.38031411  0.12543053    -0.86550
O149        O  0.24888842  0.35715328  0.28468359    -0.87890
Zr150      Zr  0.16245610  0.33832845  0.11384863     2.83100
Zr151      Zr  0.17036532  0.32094855  0.31399832     2.83500
Zr152      Zr  0.17141106  0.37894674  0.23650777     2.84090
Zr153      Zr  0.16403644  0.28119716  0.18762781     2.83360
Zr154      Zr  0.22352443  0.35637461  0.20656161     2.84220
O155        O  0.19474809  0.31424532  0.24765337    -1.08460
O156        O  0.19523274  0.37192758  0.17120348    -1.07960
C157        C  0.23258881  0.38182111  0.08139201     1.06700
C158        C  0.24205771  0.34989317  0.33137419     1.09320
C159        C  0.17024798  0.40371392  0.11694161     1.06870
C160        C  0.15545024  0.27843246  0.05758473     1.07230
C161        C  0.16873843  0.25686404  0.30544296     1.06820
C162        C  0.17402537  0.38259655  0.36504979     1.06370
C163        C  0.24601408  0.42113735  0.25478880     1.06790
C164        C  0.23604240  0.30485266  0.16842310     1.06310
H165        H  0.21179871  0.37510642  0.29732224     0.32980
O166        O  0.19899027  0.36251529  0.27183214    -1.29560
H167        H  0.20276901  0.32186752  0.11941432     0.33010
O168        O  0.19237225  0.32376761  0.14674081    -1.30940
C169        C  0.44437965  0.13509289  0.01627854     0.03240
C170        C  0.46635420  0.15595509  0.04720754    -0.12910
C171        C  0.48902193  0.15310180  0.06493853     0.00740
C172        C  0.48932671  0.12910653  0.05247693    -0.11440
C173        C  0.46796422  0.10799737  0.02252433     0.03230
C174        C  0.44544100  0.11098511  0.00442121    -0.10860
H175        H  0.46637807  0.17488468  0.05590185     0.08820
H176        H  0.00724551  0.12736611  0.06461239     0.06350
H177        H  0.42950067  0.09516210  0.97965534     0.06200
C178        C  0.49192182  0.02053914  0.98298754     0.02390
C179        C  0.46843733  0.49321810  0.98435150     0.02390
C180        C  0.47200592  0.47042065  0.99160282     0.02390
C181        C  0.99929897  0.47426540  0.98898856     0.02390
C182        C  0.02316599  0.50161389  0.98294255     0.02390
C183        C  0.01963812  0.02507775  0.98139107     0.02390
C184        C  0.15596078  0.48299204  0.00348829     0.03240
C185        C  0.17774597  0.50027952  0.97131302    -0.12910
C186        C  0.17594742  0.02012689  0.94268754     0.00740
C187        C  0.15226802  0.02309550  0.94683944    -0.11440
C188        C  0.12980730  0.50536467  0.97894285     0.03230
C189        C  0.13166645  0.48483079  0.00644126    -0.10860
H190        H  0.19633001  0.49832452  0.96868267     0.08820
H191        H  0.15155093  0.03925692  0.92550594     0.06350
H192        H  0.11420670  0.46993896  0.02945512     0.06200
C193        C  0.00966026  0.33626644  0.00657713     0.03240
C194        C  0.49667100  0.31956833  0.96424565    -0.12910
C195        C  0.48086088  0.32539466  0.93071983     0.00740
C196        C  0.47886684  0.34918974  0.93785034    -0.11440
C197        C  0.49309514  0.36738535  0.97898925     0.03230
C198        C  0.00795880  0.36031699  0.01358468    -0.10860
H199        H  0.49918363  0.30196170  0.95634089     0.08820
H200        H  0.46654784  0.35356361  0.91135837     0.06350
H201        H  0.01927741  0.37421542  0.04480008     0.06200
C202        C  0.14102533  0.18659197  0.93930223     0.03240
C203        C  0.16209169  0.18713931  0.90803057    -0.12910
C204        C  0.16070734  0.16235373  0.89276625     0.00740
C205        C  0.13707896  0.13656183  0.90584544    -0.11440
C206        C  0.11584164  0.13527968  0.93654141     0.03230
C207        C  0.11853997  0.16012852  0.95485174    -0.10860
H208        H  0.17990905  0.20673766  0.89551635     0.08820
H209        H  0.13563248  0.11740127  0.89343889     0.06350
H210        H  0.10308600  0.15845109  0.98172407     0.06200
C211        C  0.33863448  0.49666011  0.87518184     0.03240
C212        C  0.31354652  0.47800861  0.90168752    -0.12910
C213        C  0.31265598  0.45649666  0.93135466     0.00740
C214        C  0.33629990  0.45339480  0.93232220    -0.11440
C215        C  0.36149426  0.47287406  0.90933196     0.03230
C216        C  0.36235402  0.49379264  0.87952337    -0.10860
H217        H  0.29573223  0.48120156  0.90154183     0.08820
H218        H  0.33620971  0.43754897  0.95613669     0.06350
H219        H  0.38222859  0.00916943  0.86250004     0.06200
C220        C  0.35278557  0.30953165  0.98859400     0.03240
C221        C  0.33155995  0.30195369  0.02414616    -0.12910
C222        C  0.33079307  0.32228647  0.05370921     0.00740
C223        C  0.35219043  0.35068099  0.04690818    -0.11440
C224        C  0.37454583  0.35826520  0.01251385     0.03230
C225        C  0.37484198  0.33717683  0.98473043    -0.10860
H226        H  0.31523835  0.28015007  0.02767807     0.08820
H227        H  0.35121226  0.36687071  0.06746964     0.06350
H228        H  0.39211840  0.34209684  0.95933689     0.06200
C229        C  0.44071821  0.48791822  0.96643925    -0.00050
C230        C  0.43516996  0.48389365  0.91433671    -0.11920
C231        C  0.40898875  0.47776906  0.89462552     0.02190
C232        C  0.38819948  0.47592778  0.92756201    -0.00130
C233        C  0.39380362  0.47979361  0.97971445    -0.11860
C234        C  0.41982535  0.48563568  0.99941785     0.02070
H235        H  0.45132741  0.48530623  0.88920617     0.15050
H236        H  0.37797350  0.47890994  0.00505319     0.15050
C237        C  0.42448793  0.98950898  0.05318601     0.36710
C238        C  0.40376470  0.47298463  0.84100707     0.36610
N239        N  0.42760038  0.99256752  0.09645247    -0.43640
N240        N  0.39960288  0.46909609  0.79803851    -0.43630
C241        C  0.09062179  0.10769518  0.94900664    -0.00050
C242        C  0.08817745  0.09626955  0.99725427    -0.11920
C243        C  0.06522963  0.06958477  0.00901577     0.02190
C244        C  0.04418258  0.05392710  0.97212060    -0.00130
C245        C  0.04623324  0.06587396  0.92451376    -0.11860
C246        C  0.06924680  0.09231563  0.91260679     0.02070
H247        H  0.10441654  0.10808953  0.02555326     0.15050
H248        H  0.02996391  0.05420969  0.89616790     0.15050
C249        C  0.07045531  0.10334831  0.86278771     0.36710
C250        C  0.06357176  0.05900585  0.05931370     0.36610
N251        N  0.07143829  0.11221453  0.82287335    -0.43640
N252        N  0.06249010  0.05074344  0.09979973    -0.43630
C253        C  0.05175026  0.50538955  0.98148398    -0.00050
C254        C  0.06311236  0.50206681  0.02650605    -0.11920
C255        C  0.08930476  0.50377712  0.02728674     0.02190
C256        C  0.10383098  0.50715238  0.98150477    -0.00130
C257        C  0.09258227  0.51114291  0.93654427    -0.11860
C258        C  0.06706520  0.51089239  0.93639793     0.02070
H259        H  0.05144331  0.49828172  0.06131633     0.15050
H260        H  0.10336297  0.01382390  0.90107251     0.15050
C261        C  0.05696742  0.01585578  0.88939849     0.36710
C262        C  0.10088400  0.50284916  0.07588219     0.36610
N263        N  0.04933300  0.02016176  0.85147643    -0.43640
N264        N  0.10979840  0.50205877  0.11517862    -0.43630
C265        C  0.00169648  0.44886404  0.98696408    -0.00050
C266        C  0.49769020  0.43358996  0.03130809    -0.11920
C267        C  0.49337587  0.40658361  0.02965478     0.02190
C268        C  0.49499937  0.39501918  0.98304689    -0.00130
C269        C  0.99967954  0.41075866  0.93893240    -0.11860
C270        C  0.00210341  0.43691689  0.94035249     0.02070
H271        H  0.49616451  0.44214552  0.06702208     0.15050
H272        H  0.00091431  0.40238534  0.90279165     0.15050
C273        C  0.00244431  0.44982144  0.89300618     0.36710
C274        C  0.48503729  0.39055820  0.07569370     0.36610
N275        N  0.00200154  0.45943243  0.85457006    -0.43640
N276        N  0.47818234  0.37778267  0.11266787    -0.43630
C277        C  0.44658192  0.44205163  0.99783042    -0.00050
C278        C  0.43358871  0.42607980  0.95472964    -0.11920
C279        C  0.40961889  0.39940232  0.95820402     0.02190
C280        C  0.39818831  0.38782439  0.00621442    -0.00130
C281        C  0.41116425  0.40428764  0.04950039    -0.11860
C282        C  0.43516095  0.43118105  0.04562153     0.02070
H283        H  0.44230835  0.43462879  0.91798061     0.15050
H284        H  0.40312702  0.39582117  0.08658007     0.15050
C285        C  0.44825253  0.44694293  0.09116275     0.36710
C286        C  0.39764197  0.38506703  0.91109527     0.36610
N287        N  0.45883984  0.45954707  0.12768074    -0.43640
N288        N  0.38943553  0.37462291  0.87202154    -0.43630
C289        C  0.48685618  0.04383793  0.99165031    -0.00050
C290        C  0.97965618  0.05542019  0.95134290    -0.11920
C291        C  0.97208890  0.07552146  0.96019563     0.02190
C292        C  0.47099274  0.08369294  0.01025579    -0.00130
C293        C  0.47738647  0.07125136  0.05029534    -0.11860
C294        C  0.48569964  0.05194764  0.04139974     0.02070
H295        H  0.98002247  0.04878277  0.91305875     0.15050
H296        H  0.47667026  0.07731308  0.08889731     0.15050
C297        C  0.49256334  0.04035082  0.08413099     0.36710
C298        C  0.96683231  0.08824504  0.91737230     0.36610
N299        N  0.49787037  0.53092184  0.11837038    -0.43640
N300        N  0.96264162  0.09844368  0.88298038    -0.43630
C301        C  0.14382586  0.21341056  0.95895528    -0.00050
C302        C  0.17111092  0.23723208  0.96684524    -0.11920
C303        C  0.17483280  0.26109602  0.99167213     0.02190
C304        C  0.15142152  0.26099856  0.01263884    -0.00130
C305        C  0.12411598  0.23876477  0.00093457    -0.11860
C306        C  0.12009107  0.21570622  0.97255803     0.02070
H307        H  0.18995686  0.23708128  0.95615453     0.15050
H308        H  0.10585986  0.23883855  0.01586675     0.15050
C309        C  0.09136610  0.19516971  0.95775801     0.36710
C310        C  0.20306900  0.28517268  0.99742706     0.36610
N311        N  0.06827447  0.17884909  0.94600994    -0.43640
N312        N  0.22560109  0.30463587  0.00172716    -0.43630
C313        C  0.25883509  0.30080152  0.14848786    -0.00050
C314        C  0.28661403  0.31872317  0.16671865    -0.11920
C315        C  0.31033004  0.32496892  0.13786563     0.02190
C316        C  0.30653033  0.31354372  0.08892488    -0.00130
C317        C  0.27880134  0.29279660  0.07359637    -0.11860
C318        C  0.25520319  0.28568243  0.10382749     0.02070
H319        H  0.28971612  0.32915566  0.20261058     0.15050
H320        H  0.27526213  0.28264468  0.03718874     0.15050
C321        C  0.22766000  0.26305252  0.08816848     0.36710
C322        C  0.33816159  0.34315036  0.15955017     0.36610
N323        N  0.20566182  0.24438817  0.07654363    -0.43640
N324        N  0.36042411  0.35768289  0.17710882    -0.43630
C325        C  0.02810887  0.33034077  0.03888324    -0.00050
C326        C  0.05433342  0.35280314  0.05487527    -0.11920
C327        C  0.07373620  0.34828106  0.08037035     0.02190
C328        C  0.06881074  0.32104345  0.08468792    -0.00130
C329        C  0.04202313  0.29833840  0.07203973    -0.11860
C330        C  0.02122227  0.30279883  0.05102454     0.02070
H331        H  0.05979973  0.37411834  0.04823955     0.15050
H332        H  0.03717295  0.27727741  0.07976288     0.15050
C333        C  0.99279896  0.27903909  0.04490758     0.36710
C334        C  0.09569438  0.37133129  0.10893305     0.36610
N335        N  0.96999753  0.26000991  0.04045254    -0.43640
N336        N  0.11147265  0.38985521  0.13412970    -0.43630
C337        C  0.01428658  0.17566379  0.09267703    -0.00050
C338        C  0.02320771  0.16927727  0.13828089    -0.11920
C339        C  0.04873417  0.18891922  0.16253416     0.02190
C340        C  0.06604327  0.21535060  0.14084075    -0.00130
C341        C  0.05727081  0.22167731  0.09532607    -0.11860
C342        C  0.03188046  0.20217745  0.07105475     0.02070
H343        H  0.01017630  0.14881653  0.15490470     0.15050
H344        H  0.07020805  0.24226168  0.07901544     0.15050
C345        C  0.02495547  0.20959955  0.02309640     0.36710
C346        C  0.05648404  0.18184893  0.21001493     0.36610
N347        N  0.01948989  0.21558470  0.98461108    -0.43640
N348        N  0.06281890  0.17627160  0.24806045    -0.43630
C349        C  0.29028259  0.44002114  0.96929388    -0.00050
C350        C  0.29918713  0.44148436  0.01969710    -0.11920
C351        C  0.28132373  0.42272315  0.05622621     0.02190
C352        C  0.25305264  0.40193073  0.04330109    -0.00130
C353        C  0.24374259  0.40136301  0.99301347    -0.11860
C354        C  0.26206967  0.42002208  0.95619676     0.02070
H355        H  0.32090695  0.45688235  0.03018520     0.15050
H356        H  0.22220001  0.38593029  0.98190052     0.15050
C357        C  0.25185847  0.41751819  0.90495422     0.36710
C358        C  0.29321052  0.42547983  0.10625665     0.36610
N359        N  0.24368719  0.41557632  0.86386017    -0.43640
N360        N  0.30299110  0.42775753  0.14612578    -0.43630
C361        C  0.16943388  0.42543137  0.08627023    -0.00050
C362        C  0.16968326  0.44770779  0.11147473    -0.11920
C363        C  0.16469144  0.46639144  0.08530271     0.02190
C364        C  0.15909263  0.46277546  0.03317433    -0.00130
C365        C  0.15999039  0.44153042  0.00734887    -0.11860
C366        C  0.16541784  0.42304945  0.03297911     0.02070
H367        H  0.17326894  0.45037370  0.15192923     0.15050
H368        H  0.15676586  0.43965614  0.96670492     0.15050
C369        C  0.16682487  0.40227302  0.00282091     0.36710
C370        C  0.16652735  0.48968451  0.11230515     0.36610
N371        N  0.16794286  0.38575416  0.97831059    -0.43640
N372        N  0.16835488  0.00847618  0.13407195    -0.43630
C373        C  0.30001296  0.35347102  0.44526934    -0.00050
C374        C  0.30816641  0.35737713  0.39441106    -0.11920
C375        C  0.29081101  0.35839985  0.35663938     0.02190
C376        C  0.26407343  0.35433315  0.36943548    -0.00130
C377        C  0.25679549  0.35192737  0.42104616    -0.11860
C378        C  0.27446468  0.35150253  0.45871681     0.02070
H379        H  0.32847885  0.36006857  0.38431929     0.15050
H380        H  0.23694703  0.34997088  0.43231962     0.15050
C381        C  0.26639984  0.34995253  0.51089656     0.36710
C382        C  0.30160745  0.36454725  0.30591718     0.36610
N383        N  0.26002911  0.34887558  0.55272206    -0.43640
N384        N  0.31089212  0.37025491  0.26571322    -0.43630
C385        C  0.16918107  0.23350877  0.33138896    -0.00050
C386        C  0.15176881  0.20640042  0.31166304    -0.11920
C387        C  0.15323326  0.18373805  0.33016639     0.02190
C388        C  0.17221478  0.18772979  0.36999329    -0.00130
C389        C  0.18948437  0.21477390  0.39010042    -0.11860
C390        C  0.18822969  0.23756082  0.37110964     0.02070
H391        H  0.13717171  0.20292709  0.28080561     0.15050
H392        H  0.20399832  0.21812140  0.42101236     0.15050
C393        C  0.20773184  0.26491890  0.39140178     0.36710
C394        C  0.13579230  0.15688441  0.30612155     0.36610
N395        N  0.22358173  0.28674827  0.40788902    -0.43640
N396        N  0.12173035  0.13538340  0.28684972    -0.43630
C397        C  0.03623762  0.35099244  0.36885777    -0.00050
C398        C  0.06337288  0.37548311  0.36625173    -0.11920
C399        C  0.08385043  0.37800903  0.33155499     0.02190
C400        C  0.07781006  0.35539053  0.29954250    -0.00130
C401        C  0.04991402  0.33184005  0.29998746    -0.11860
C402        C  0.02943823  0.32948380  0.33377302     0.02070
H403        H  0.06872573  0.39275189  0.39161695     0.15050
H404        H  0.04394938  0.31450686  0.27440346     0.15050
C405        C  0.00137079  0.30491179  0.33048344     0.36710
C406        C  0.11033747  0.40422591  0.32865729     0.36610
N407        N  0.97892728  0.28518265  0.32783316    -0.43640
N408        N  0.13127277  0.42548834  0.32516650    -0.43630
C409        C  0.31638497  0.47983621  0.34994247    -0.00050
C410        C  0.30141289  0.48932250  0.32039684    -0.11920
C411        C  0.27819001  0.47096401  0.28923297     0.02190
C412        C  0.26997879  0.44266875  0.28619287    -0.00130
C413        C  0.28502999  0.43336519  0.31539505    -0.11860
C414        C  0.30751679  0.45126011  0.34736494     0.02070
H415        H  0.30772204  0.51114662  0.32200609     0.15050
H416        H  0.27854392  0.41148781  0.31454631     0.15050
C417        C  0.31963438  0.43907641  0.37945766     0.36710
C418        C  0.26356841  0.48163165  0.26013983     0.36610
N419        N  0.32923675  0.42920444  0.40512170    -0.43640
N420        N  0.25178638  0.49012356  0.23674287    -0.43630
C421        C  0.16071569  0.43817223  0.45818146    -0.00050
C422        C  0.15448153  0.41228908  0.47886437    -0.11920
C423        C  0.16202125  0.39466483  0.45324557     0.02190
C424        C  0.17497546  0.40238336  0.40544467    -0.00130
C425        C  0.18461273  0.43009202  0.38953882    -0.11860
C426        C  0.17711201  0.44736727  0.41426347     0.02070
H427        H  0.14386126  0.40589738  0.51489431     0.15050
H428        H  0.19649748  0.43785684  0.35485460     0.15050
C429        C  0.18490344  0.47389414  0.39159244     0.36710
C430        C  0.15917898  0.37065992  0.47873451     0.36610
N431        N  0.19079695  0.49497554  0.37324452    -0.43640
N432        N  0.15840856  0.35231031  0.50037043    -0.43630
C433        C  0.08275790  0.25419608  0.37835793    -0.00050
C434        C  0.06798884  0.22664480  0.36034024    -0.11920
C435        C  0.05641568  0.20422914  0.39387124     0.02190
C436        C  0.06052854  0.20939947  0.44639429    -0.00130
C437        C  0.07513863  0.23705525  0.46408693    -0.11860
C438        C  0.08531687  0.25927522  0.43064314     0.02070
H439        H  0.06615305  0.22260896  0.32000673     0.15050
H440        H  0.07741851  0.24126287  0.50437712     0.15050
C441        C  0.09640103  0.28696539  0.45067859     0.36710
C442        C  0.03943731  0.17638037  0.37336263     0.36610
N443        N  0.10428764  0.30899905  0.46676232    -0.43640
N444        N  0.02572575  0.15411212  0.35676858    -0.43630
C445        C  0.45006772  0.45661732  0.49869931    -0.00050
C446        C  0.43518094  0.44108061  0.45608518    -0.11920
C447        C  0.40947785  0.41591903  0.46099410     0.02190
C448        C  0.39754330  0.40643747  0.50942987    -0.00130
C449        C  0.41248410  0.42210251  0.55212229    -0.11860
C450        C  0.43868581  0.44694137  0.54712601     0.02070
H451        H  0.44427203  0.44817024  0.41898296     0.15050
H452        H  0.40356109  0.41505759  0.58932635     0.15050
C453        C  0.45381568  0.46171503  0.59229281     0.36710
C454        C  0.39653664  0.39972207  0.41571425     0.36610
N455        N  0.46595039  0.47327620  0.62874119    -0.43640
N456        N  0.38643128  0.38691637  0.37918322    -0.43630
C457        C  0.02145072  0.11118805  0.50642451    -0.00050
C458        C  0.02174073  0.10125819  0.45773615    -0.11920
C459        C  0.01829423  0.07493593  0.45089060     0.02190
C460        C  0.01373272  0.05796698  0.49318292    -0.00130
C461        C  0.01182896  0.06703001  0.54135318    -0.11860
C462        C  0.01667385  0.09376436  0.54858993     0.02070
H463        H  0.02483372  0.11409837  0.42497155     0.15050
H464        H  0.50889400  0.05395667  0.57376338     0.15050
C465        C  0.51898978  0.10323138  0.60001149     0.36710
C466        C  0.02074314  0.06623544  0.40087250     0.36610
N467        N  0.52095793  0.11019443  0.64168768    -0.43640
N468        N  0.02283389  0.05930479  0.36080749    -0.43630
C469        C  0.06793013  0.05352117  0.49617368    -0.00050
C470        C  0.07485769  0.08165225  0.49817775    -0.11920
C471        C  0.10126656  0.10390963  0.48354918     0.02190
C472        C  0.12228931  0.09869407  0.46634576    -0.00130
C473        C  0.11792251  0.07203349  0.47584048    -0.11860
C474        C  0.09247493  0.05120970  0.49783061     0.02070
H475        H  0.06158307  0.08774778  0.51542886     0.15050
H476        H  0.13533242  0.06837902  0.47183801     0.15050
C477        C  0.09674026  0.03796749  0.54091810     0.36710
C478        C  0.10667639  0.13191800  0.49056354     0.36610
N479        N  0.10108398  0.02868140  0.57654306    -0.43640
N480        N  0.11084506  0.15424055  0.49634284    -0.43630
C481        C  0.41098607  0.01539687  0.44310701    -0.00050
C482        C  0.41762951  0.01473864  0.49445727    -0.11920
C483        C  0.44137061  0.51323917  0.50963722     0.02190
C484        C  0.45882905  0.01120544  0.47327010    -0.00130
C485        C  0.45237372  0.01190213  0.42192012    -0.11860
C486        C  0.42920722  0.01453379  0.40665767     0.02070
H487        H  0.40417036  0.51548607  0.52329132     0.15050
H488        H  0.46580077  0.01074665  0.39351530     0.15050
C489        C  0.42564903  0.01783884  0.35356870     0.36710
C490        C  0.44767187  0.51494201  0.56286221     0.36610
N491        N  0.42294642  0.02068270  0.31100480    -0.43640
N492        N  0.45236312  0.51702748  0.60581809    -0.43630
C493        C  0.05277634  0.99166418  0.48210053    -0.00050
C494        C  0.05660576  0.97744090  0.52218360    -0.11920
C495        C  0.07584726  0.96828963  0.51930959     0.02190
C496        C  0.09281286  0.97415391  0.47621007    -0.00130
C497        C  0.08813397  0.98712505  0.43473358    -0.11860
C498        C  0.06773734  0.99522454  0.43694346     0.02070
H499        H  0.04578245  0.97511418  0.55731864     0.15050
H500        H  0.10147842  0.99231506  0.40181079     0.15050
C501        C  0.06329334  0.00816221  0.39354960     0.36710
C502        C  0.07999413  0.95548663  0.56334175     0.36610
N503        N  0.05961485  0.01853696  0.35885250    -0.43640
N504        N  0.08342174  0.94534271  0.59866062    -0.43630
C505        C  0.49578700  0.44830568  0.47720229    -0.00050
C506        C  0.49417788  0.44069554  0.42631772    -0.11920
C507        C  0.49067477  0.41497436  0.41301894     0.02190
C508        C  0.48960782  0.39692218  0.45128843    -0.00130
C509        C  0.48985436  0.40411744  0.50211589    -0.11860
C510        C  0.49238428  0.42932734  0.51536542     0.02070
H511        H  0.49600289  0.45509793  0.39704354     0.15050
H512        H  0.48918933  0.39043774  0.53183690     0.15050
C513        C  0.49347766  0.43572287  0.56835822     0.36710
C514        C  0.48780202  0.40748988  0.36022245     0.36610
N515        N  0.49496806  0.44035783  0.61120018    -0.43640
N516        N  0.48541837  0.40151456  0.31788483    -0.43630
C517        C  0.23183619  0.16272108  0.82252183    -0.00050
C518        C  0.20623349  0.15330497  0.79541873    -0.11920
C519        C  0.18300702  0.15330130  0.81717567     0.02190
C520        C  0.18509251  0.16325811  0.86684141    -0.00130
C521        C  0.21056182  0.17295675  0.89384334    -0.11860
C522        C  0.23368077  0.17261480  0.87257759     0.02070
H523        H  0.20416360  0.14561567  0.75711246     0.15050
H524        H  0.21222635  0.18045679  0.93222276     0.15050
C525        C  0.25902865  0.18303914  0.90317020     0.36710
C526        C  0.15738434  0.14341264  0.78755130     0.36610
N527        N  0.27915050  0.19131546  0.92823179    -0.43640
N528        N  0.13685006  0.13552546  0.76379901    -0.43630
C529        C  0.34947313  0.24983085  0.88414273    -0.00050
C530        C  0.34865210  0.27307149  0.86671315    -0.11920
C531        C  0.34800050  0.29172554  0.90052782     0.02190
C532        C  0.35101142  0.28883536  0.95260335    -0.00130
C533        C  0.35114031  0.26544442  0.97054596    -0.11860
C534        C  0.34914581  0.24528608  0.93703511     0.02070
H535        H  0.34661225  0.27569691  0.82660408     0.15050
H536        H  0.35197213  0.26257702  0.01091998     0.15050
C537        C  0.34526933  0.21989228  0.95881861     0.36710
C538        C  0.34060220  0.31135932  0.88149968     0.36610
N539        N  0.34150511  0.19950528  0.97730680    -0.43640
N540        N  0.33348948  0.32620585  0.86620475    -0.43630
C541        C  0.44123639  0.17284265  0.61571657    -0.00050
C542        C  0.45746684  0.16471338  0.64424640    -0.11920
C543        C  0.47998854  0.16393975  0.62275414     0.02190
C544        C  0.48584803  0.17039956  0.57143054    -0.00130
C545        C  0.47036571  0.17938297  0.54324922    -0.11860
C546        C  0.44866181  0.18138214  0.56514556     0.02070
H547        H  0.45257841  0.15879202  0.68350943     0.15050
H548        H  0.47528383  0.18487531  0.50380614     0.15050
C549        C  0.43530686  0.19312696  0.53509476     0.36710
C550        C  0.49746090  0.15783508  0.65477106     0.36610
N551        N  0.42486786  0.20275867  0.51097763    -0.43640
N552        N  0.01148850  0.15346575  0.68143612    -0.43630
C553        C  0.41653599  0.26196329  0.56675249    -0.00050
C554        C  0.44424726  0.28115054  0.58359837    -0.11920
C555        C  0.46477227  0.30027878  0.55008293     0.02190
C556        C  0.45772142  0.30048918  0.49875759    -0.00130
C557        C  0.43007915  0.28141768  0.48196588    -0.11860
C558        C  0.40962105  0.26218929  0.51518551     0.02070
H559        H  0.45000511  0.28090981  0.62278591     0.15050
H560        H  0.42419243  0.28224367  0.44307945     0.15050
C561        C  0.38135603  0.24358513  0.49564548     0.36710
C562        C  0.49281335  0.31999548  0.56923253     0.36610
N563        N  0.35877442  0.22864210  0.47974158    -0.43640
N564        N  0.01534160  0.33581718  0.58436762    -0.43630
C565        C  0.44030724  0.25872644  0.82341994    -0.00050
C566        C  0.46367423  0.28441194  0.80831469    -0.11920
C567        C  0.47667697  0.30717485  0.84199453     0.02190
C568        C  0.46541779  0.30469609  0.89058970    -0.00130
C569        C  0.44201585  0.27934643  0.90529293    -0.11860
C570        C  0.42959034  0.25659685  0.87249413     0.02070
H571        H  0.47150181  0.28674705  0.77012493     0.15050
H572        H  0.43390086  0.27712488  0.94330874     0.15050
C573        C  0.40566601  0.23134347  0.89069583     0.36710
C574        C  0.00180745  0.33261313  0.82666235     0.36610
N575        N  0.38701708  0.21117824  0.90715563    -0.43640
N576        N  0.02206372  0.35305439  0.81479606    -0.43630
C577        C  0.42395913  0.14119381  0.98893582    -0.00050
C578        C  0.43570828  0.16659113  0.96354040    -0.11920
C579        C  0.41981833  0.17241764  0.92970503     0.02190
C580        C  0.39014094  0.15350280  0.92245429    -0.00130
C581        C  0.37769619  0.12856562  0.95057705    -0.11860
C582        C  0.39435164  0.12207645  0.98275200     0.02070
H583        H  0.45841132  0.18117396  0.96644535     0.15050
H584        H  0.35553057  0.11306209  0.94413917     0.15050
C585        C  0.38074887  0.09535424  0.00757516     0.36710
C586        C  0.43631215  0.19647437  0.89837719     0.36610
N587        N  0.36985296  0.07383119  0.02721523    -0.43640
N588        N  0.45141833  0.21553221  0.87406112    -0.43630
C589        C  0.32131220  0.26167805  0.63256515    -0.00050
C590        C  0.34604179  0.27708175  0.60387159    -0.11920
C591        C  0.35086521  0.30002545  0.57512741     0.02190
C592        C  0.33121625  0.30913613  0.57598950    -0.00130
C593        C  0.30609973  0.29347836  0.60418431    -0.11860
C594        C  0.30096762  0.26978772  0.63211422     0.02070
H595        H  0.36156359  0.27062903  0.60285398     0.15050
H596        H  0.29064410  0.29998383  0.60495413     0.15050
C597        C  0.27548695  0.25492905  0.66151913     0.36710
C598        C  0.37549832  0.31273760  0.54303881     0.36610
N599        N  0.25508370  0.24298806  0.68524088    -0.43640
N600        N  0.39522289  0.32279632  0.51735575    -0.43630
C601        C  0.27983314  0.16448169  0.50644647    -0.00050
C602        C  0.26081361  0.13742667  0.48838938    -0.11920
C603        C  0.23596166  0.13137860  0.46192597     0.02190
C604        C  0.22961965  0.15266364  0.45390359    -0.00130
C605        C  0.25028972  0.18017569  0.46752664    -0.11860
C606        C  0.27516934  0.18616007  0.49301671     0.02070
H607        H  0.26402759  0.12049942  0.49893361     0.15050
H608        H  0.24623226  0.19699563  0.46168459     0.15050
C609        C  0.29450501  0.21456725  0.50855816     0.36710
C610        C  0.21701307  0.10303687  0.44515600     0.36610
N611        N  0.30983294  0.23760231  0.51982170    -0.43640
N612        N  0.20186035  0.08027063  0.43191723    -0.43630
C613        C  0.35276686  0.06831264  0.78835968    -0.00050
C614        C  0.33100058  0.04097294  0.77475716    -0.11920
C615        C  0.32556728  0.01763170  0.80313404     0.02190
C616        C  0.34206182  0.02103099  0.84633041    -0.00130
C617        C  0.36477398  0.04796344  0.85868514    -0.11860
C618        C  0.37042032  0.07142010  0.83005946     0.02070
H619        H  0.31752951  0.03770396  0.74216809     0.15050
H620        H  0.37826851  0.05066249  0.89096333     0.15050
C621        C  0.39440226  0.09814138  0.84466016     0.36710
C622        C  0.30342908  0.99032973  0.78631217     0.36610
N623        N  0.41398810  0.11936760  0.85622860    -0.43640
N624        N  0.28574766  0.46846159  0.77268187    -0.43630
C625        C  0.19996761  0.03820251  0.91040741    -0.00050
C626        C  0.22663592  0.05414624  0.93360166    -0.11920
C627        C  0.25077027  0.06994507  0.90490265     0.02190
C628        C  0.24829244  0.07012881  0.85184041    -0.00130
C629        C  0.22171256  0.05335672  0.82842509    -0.11860
C630        C  0.19749634  0.03737066  0.85740472     0.02070
H631        H  0.22855573  0.05410425  0.97442037     0.15050
H632        H  0.21966326  0.05365773  0.78768486     0.15050
C633        C  0.17054995  0.02003095  0.83213221     0.36710
C634        C  0.27776082  0.08578565  0.93093717     0.36610
N635        N  0.14895459  0.00609169  0.81190108    -0.43640
N636        N  0.29928781  0.09849663  0.95201183    -0.43630
C637        C  0.18729012  0.02678464  0.55366586    -0.00050
C638        C  0.17701152  0.03587953  0.59355471    -0.11920
C639        C  0.19525233  0.05978613  0.62218738     0.02190
C640        C  0.22435089  0.07476596  0.61162155    -0.00130
C641        C  0.23447064  0.06644449  0.57075177    -0.11860
C642        C  0.21633897  0.04292888  0.54160459     0.02070
H643        H  0.15468827  0.02396675  0.60302589     0.15050
H644        H  0.25699216  0.07805074  0.56245949     0.15050
C645        C  0.22817450  0.03626382  0.49926199     0.36710
C646        C  0.18395275  0.06798915  0.66313655     0.36610
N647        N  0.23786250  0.03103408  0.46550488    -0.43640
N648        N  0.17494052  0.07474713  0.69579793    -0.43630
C649        C  0.34689125  0.05136043  0.48738230    -0.00050
C650        C  0.35290524  0.05180838  0.53916935    -0.11920
C651        C  0.34735608  0.06739582  0.57339465     0.02190
C652        C  0.33459018  0.08233942  0.55650962    -0.00130
C653        C  0.32840163  0.08191617  0.50487457    -0.11860
C654        C  0.33450398  0.06676120  0.47029802     0.02070
H655        H  0.36241978  0.04020947  0.55304652     0.15050
H656        H  0.31931368  0.09397603  0.49136862     0.15050
C657        C  0.32907599  0.06857696  0.41740710     0.36710
C658        C  0.35740035  0.06962530  0.62466868     0.36610
N659        N  0.32460282  0.06999366  0.37506472    -0.43640
N660        N  0.36617307  0.07153804  0.66525083    -0.43630
O661        O  0.34196481  0.62662102  0.57637978    -0.86380
O662        O  0.28547724  0.61571257  0.84164043    -0.86550
O663        O  0.32868051  0.58550544  0.74222736    -0.88220
O664        O  0.26219874  0.58747077  0.66574480    -0.86970
O665        O  0.24942986  0.62013430  0.65118168    -0.86560
O666        O  0.37388104  0.61777659  0.76789014    -0.87930
O667        O  0.27536993  0.58459755  0.77689359    -0.86410
O668        O  0.31839929  0.59124809  0.63346035    -0.86000
Zr669      Zr  0.30745639  0.61009156  0.70792114     2.84310
O670        O  0.29001983  0.63629714  0.74416077    -1.07970
O671        O  0.35366479  0.63969595  0.68066411    -1.08700
C672        C  0.33097808  0.60112034  0.59083626     1.06730
C673        C  0.27162496  0.59127002  0.82160135     1.06670
C674        C  0.35243674  0.59227542  0.76372522     1.09650
C675        C  0.24594561  0.59539151  0.64664150     1.07430
H676        H  0.33477623  0.62253795  0.80298747     0.32990
O677        O  0.33579647  0.63510984  0.77704526    -1.28920
H678        H  0.29631914  0.62932428  0.61797302     0.32660
O679        O  0.30693783  0.63987664  0.64726481    -1.30600
O680        O  0.33434427  0.70400848  0.85858012    -0.86380
O681        O  0.38325810  0.71495544  0.58377432    -0.87870
O682        O  0.38953697  0.65924951  0.83592219    -0.86450
O683        O  0.25663630  0.66384329  0.74821365    -0.86500
O684        O  0.28263131  0.66744266  0.59323081    -0.86210
O685        O  0.41600028  0.67054742  0.68815511    -0.86020
O686        O  0.41124871  0.74634275  0.75307565    -0.86390
O687        O  0.34249572  0.74576964  0.68831079    -0.85850
O688        O  0.41581890  0.71176672  0.78954287    -0.86920
O689        O  0.29811744  0.71320761  0.65872494    -0.86070
O690        O  0.35128688  0.65561548  0.87737630    -0.86470
O691        O  0.39726690  0.67073399  0.61052640    -0.86190
O692        O  0.31950313  0.66757727  0.55254478    -0.85850
O693        O  0.27494801  0.66149781  0.82519202    -0.86250
O694        O  0.35895692  0.73954796  0.80222234    -0.86550
O695        O  0.39338662  0.74677770  0.64710204    -0.87890
Zr696      Zr  0.31945849  0.66162282  0.81321497     2.83100
Zr697      Zr  0.35265651  0.66931441  0.61900262     2.83500
Zr698      Zr  0.38207514  0.66532221  0.74984809     2.84090
Zr699      Zr  0.28882769  0.66598590  0.68272514     2.83360
Zr700      Zr  0.36407528  0.72121557  0.72112212     2.84220
O701        O  0.33496765  0.69561089  0.65351780    -1.08460
O702        O  0.36492750  0.69203618  0.78382641    -1.07960
C703        C  0.34780701  0.72984822  0.84603110     1.06700
C704        C  0.39623005  0.73997576  0.60159348     1.09320
C705        C  0.37546153  0.65604707  0.87611944     1.06870
C706        C  0.25608059  0.66261992  0.79710419     1.07230
C707        C  0.29561060  0.66707939  0.55339676     1.06820
C708        C  0.41660243  0.67147862  0.63960333     1.06370
C709        C  0.42241301  0.73763643  0.78501410     1.06790
C710        C  0.31964425  0.73860189  0.66321739     1.06310
H711        H  0.40147062  0.70776019  0.67668374     0.32980
O712        O  0.38222014  0.69520866  0.68734630    -1.29560
H713        H  0.31104881  0.70273146  0.76517920     0.33010
O714        O  0.31816370  0.69161204  0.75116818    -1.30940
C715        C  0.47917180  0.98104228  0.49215979     0.02390
C716        C  0.50211653  0.97688221  0.48855536     0.02390
C717        C  0.03065982  0.49962452  0.48761051     0.02390
C718        C  0.03674623  0.52795708  0.49282431     0.02390
C719        C  0.01198190  0.53102873  0.48944374     0.02390
C720        C  0.48371409  0.50782729  0.48694571     0.02390
C721        C  0.00781224  0.66798297  0.54555677     0.03240
C722        C  0.00619423  0.64233642  0.54261719    -0.12910
C723        C  0.02490606  0.63910098  0.51186658     0.00740
C724        C  0.04456674  0.66175328  0.48238243    -0.11440
C725        C  0.04497898  0.68703961  0.48348855     0.03230
C726        C  0.02742677  0.69025972  0.51678599    -0.10860
H727        H  0.98926006  0.62454884  0.56204595     0.08820
H728        H  0.05865974  0.65943335  0.45728133     0.06350
H729        H  0.02730193  0.70958571  0.51739752     0.06200
C730        C  0.15177329  0.95666522  0.48236717     0.03240
C731        C  0.17186294  0.48004935  0.51089142    -0.12910
C732        C  0.16681191  0.50162526  0.52365554     0.00740
C733        C  0.14148671  0.49943518  0.50793400    -0.11440
C734        C  0.12056951  0.47593628  0.48216888     0.03230
C735        C  0.12569055  0.95448342  0.46880449    -0.10860
H736        H  0.19169021  0.48169567  0.52183527     0.08820
H737        H  0.13751790  0.51601012  0.51710528     0.06350
H738        H  0.10988320  0.93664305  0.44729189     0.06200
C739        C  0.35382262  0.53467171  0.45273686     0.03240
C740        C  0.37956991  0.53517495  0.45830286    -0.12910
C741        C  0.38528579  0.51738673  0.42987893     0.00740
C742        C  0.36515539  0.50008987  0.39276189    -0.11440
C743        C  0.33918587  0.49944506  0.38622459     0.03230
C744        C  0.33375745  0.51646251  0.41719326    -0.10860
H745        H  0.39508213  0.54915513  0.48586912     0.08820
H746        H  0.36922212  0.98644372  0.37021861     0.06350
H747        H  0.31319013  0.51463294  0.41499201     0.06200
C748        C  0.01462950  0.84939249  0.40493254     0.03240
C749        C  0.49741171  0.82541067  0.43467293    -0.12910
C750        C  0.47620911  0.82439629  0.46576205     0.00740
C751        C  0.47245573  0.84715301  0.46733851    -0.11440
C752        C  0.49023708  0.87142259  0.44050249     0.03230
C753        C  0.01106341  0.87238861  0.40914615    -0.10860
H754        H  0.50050261  0.80780626  0.43386375     0.08820
H755        H  0.45626870  0.84638579  0.49154592     0.06350
H756        H  0.02488808  0.89133423  0.38859933     0.06200
C757        C  0.20119765  0.64700045  0.43584336     0.03680
C758        C  0.17587560  0.62475989  0.45598010    -0.12910
C759        C  0.14927662  0.62130653  0.44343578     0.00740
C760        C  0.14841978  0.64074837  0.41093940    -0.11440
C761        C  0.17334007  0.66409259  0.39356458     0.03230
C762        C  0.19948452  0.66643421  0.40441209    -0.10860
H763        H  0.17700380  0.61113811  0.48368905     0.08820
H764        H  0.12820851  0.63857326  0.40139163     0.06350
H765        H  0.21866314  0.68414654  0.38976778     0.06200
C766        C  0.33628528  0.83422081  0.54663470     0.03240
C767        C  0.36317313  0.85923309  0.54746352    -0.12910
C768        C  0.36875195  0.88150158  0.51525048     0.00740
C769        C  0.34683826  0.87968672  0.48563542    -0.11440
C770        C  0.32043187  0.85524275  0.48361386     0.03230
C771        C  0.31491322  0.83254230  0.51440571    -0.10860
H772        H  0.38003467  0.86100062  0.57158456     0.08820
H773        H  0.35072938  0.89714296  0.46199694     0.06350
H774        H  0.29453826  0.81329974  0.51155422     0.06200
O775        O  0.12666201  0.79224082  0.35759688    -0.86380
O776        O  0.11469784  0.82741795  0.08806924    -0.86550
O777        O  0.09140769  0.82773556  0.25705577    -0.88220
O778        O  0.08396317  0.75626234  0.18718710    -0.86970
O779        O  0.11513314  0.74200247  0.16761654    -0.86560
O780        O  0.12569007  0.87382787  0.26535310    -0.87930
O781        O  0.08352534  0.80512963  0.15296263    -0.86410
O782        O  0.09062960  0.77638350  0.29888110    -0.86000
Zr783      Zr  0.11122908  0.80257435  0.22142649     2.84310
O784        O  0.13470547  0.79616009  0.15486240    -1.07970
O785        O  0.14241662  0.83655950  0.27830458    -1.08700
C786        C  0.10075233  0.77635000  0.34307124     1.06730
C787        C  0.09009067  0.81661974  0.10922976     1.06670
C788        C  0.09991251  0.85278554  0.27123674     1.09650
C789        C  0.08999216  0.73885435  0.16826355     1.07430
H790        H  0.12748681  0.85278408  0.16916831     0.32990
O791        O  0.13895687  0.84537007  0.18055296    -1.28920
H792        H  0.12822696  0.76876123  0.26988642     0.32660
O793        O  0.13970184  0.78684231  0.25459489    -1.30600
O794        O  0.20613994  0.86766705  0.06824275    -0.86380
O795        O  0.21671568  0.83809459  0.34864015    -0.87870
O796        O  0.17260403  0.90704377  0.16541944    -0.86450
O797        O  0.15895944  0.76859439  0.09919626    -0.86500
O798        O  0.16534854  0.75400563  0.25711533    -0.86210
O799        O  0.17424849  0.89222033  0.32123524    -0.86020
O800        O  0.25173608  0.90429281  0.23232604    -0.86390
O801        O  0.24475483  0.83010581  0.18191986    -0.85850
O802        O  0.22080525  0.91786107  0.25750484    -0.86920
O803        O  0.20970017  0.78463500  0.16787234    -0.86070
O804        O  0.16668293  0.88209042  0.09327188    -0.86470
O805        O  0.17230275  0.85851982  0.37286831    -0.86190
O806        O  0.17141003  0.77780510  0.33163175    -0.85850
O807        O  0.15539809  0.80152696  0.05312454    -0.86250
O808        O  0.24224040  0.88031411  0.12543054    -0.86550
O809        O  0.24888842  0.85715327  0.28468360    -0.87890
Zr810      Zr  0.16245610  0.83832845  0.11384864     2.83100
Zr811      Zr  0.17036532  0.82094853  0.31399832     2.83500
Zr812      Zr  0.17141106  0.87894673  0.23650781     2.84090
Zr813      Zr  0.16403643  0.78119716  0.18762779     2.83360
Zr814      Zr  0.22352443  0.85637460  0.20656162     2.84220
O815        O  0.19474809  0.81424530  0.24765336    -1.08460
O816        O  0.19523275  0.87192758  0.17120351    -1.07960
C817        C  0.23258881  0.88182111  0.08139203     1.06700
C818        C  0.24205770  0.84989315  0.33137419     1.09320
C819        C  0.17024799  0.90371393  0.11694165     1.06870
C820        C  0.15545024  0.77843246  0.05758472     1.07230
C821        C  0.16873844  0.75686402  0.30544291     1.06820
C822        C  0.17402538  0.88259652  0.36504983     1.06370
C823        C  0.24601409  0.92113734  0.25478884     1.06790
C824        C  0.23604240  0.80485265  0.16842311     1.06310
H825        H  0.21179871  0.87510640  0.29732226     0.32980
O826        O  0.19899027  0.86251527  0.27183216    -1.29560
H827        H  0.20276901  0.82186752  0.11941431     0.33010
O828        O  0.19237225  0.82376761  0.14674081    -1.30940
C829        C  0.44437964  0.63509288  0.01627855     0.03240
C830        C  0.46635420  0.65595508  0.04720755    -0.12910
C831        C  0.48902193  0.65310180  0.06493852     0.00740
C832        C  0.48932672  0.62910653  0.05247690    -0.11440
C833        C  0.46796423  0.60799737  0.02252430     0.03230
C834        C  0.44544100  0.61098511  0.00442120    -0.10860
H835        H  0.46637806  0.67488466  0.05590188     0.08820
H836        H  0.00724549  0.62736610  0.06461241     0.06350
H837        H  0.42950067  0.59516210  0.97965532     0.06200
C838        C  0.49192181  0.52053913  0.98298752     0.02390
C839        C  0.46843733  0.99321811  0.98435152     0.02390
C840        C  0.47200592  0.97042066  0.99160283     0.02390
C841        C  0.99929898  0.97426540  0.98898858     0.02390
C842        C  0.02316600  0.00161389  0.98294256     0.02390
C843        C  0.01963811  0.52507775  0.98139106     0.02390
C844        C  0.15596080  0.98299205  0.00348832     0.03240
C845        C  0.17774599  0.00027953  0.97131303    -0.12910
C846        C  0.17594741  0.52012690  0.94268754     0.00740
C847        C  0.15226802  0.52309551  0.94683944    -0.11440
C848        C  0.12980732  0.00536467  0.97894286     0.03230
C849        C  0.13166647  0.98483080  0.00644128    -0.10860
H850        H  0.19633002  0.99832452  0.96868268     0.08820
H851        H  0.15155093  0.53925693  0.92550596     0.06350
H852        H  0.11420672  0.96993897  0.02945515     0.06200
C853        C  0.00966025  0.83626643  0.00657718     0.03240
C854        C  0.49667106  0.81956836  0.96424561    -0.12910
C855        C  0.48086092  0.82539468  0.93071979     0.00740
C856        C  0.47886687  0.84918976  0.93785031    -0.11440
C857        C  0.49309517  0.86738537  0.97898922     0.03230
C858        C  0.00795879  0.86031698  0.01358473    -0.10860
H859        H  0.49918369  0.80196174  0.95634084     0.08820
H860        H  0.46654786  0.85356362  0.91135835     0.06350
H861        H  0.01927740  0.87421542  0.04480012     0.06200
C862        C  0.14102532  0.68659198  0.93930222     0.03240
C863        C  0.16209169  0.68713931  0.90803057    -0.12910
C864        C  0.16070733  0.66235373  0.89276624     0.00740
C865        C  0.13707895  0.63656183  0.90584543    -0.11440
C866        C  0.11584163  0.63527968  0.93654140     0.03230
C867        C  0.11853996  0.66012852  0.95485173    -0.10860
H868        H  0.17990904  0.70673766  0.89551635     0.08820
H869        H  0.13563247  0.61740127  0.89343889     0.06350
H870        H  0.10308599  0.65845109  0.98172406     0.06200
C871        C  0.33863448  0.99666012  0.87518186     0.03240
C872        C  0.31354652  0.97800862  0.90168753    -0.12910
C873        C  0.31265598  0.95649668  0.93135469     0.00740
C874        C  0.33629990  0.95339482  0.93232224    -0.11440
C875        C  0.36149426  0.97287408  0.90933200     0.03230
C876        C  0.36235403  0.99379266  0.87952340    -0.10860
H877        H  0.29573223  0.98120156  0.90154183     0.08820
H878        H  0.33620972  0.93754899  0.95613673     0.06350
H879        H  0.38222859  0.50916941  0.86250002     0.06200
C880        C  0.35278555  0.80953168  0.98859394     0.03240
C881        C  0.33155993  0.80195371  0.02414612    -0.12910
C882        C  0.33079306  0.82228649  0.05370919     0.00740
C883        C  0.35219041  0.85068101  0.04690817    -0.11440
C884        C  0.37454580  0.85826523  0.01251381     0.03230
C885        C  0.37484195  0.83717686  0.98473035    -0.10860
H886        H  0.31523834  0.78015009  0.02767803     0.08820
H887        H  0.35121225  0.86687072  0.06746964     0.06350
H888        H  0.39211836  0.84209688  0.95933679     0.06200
C889        C  0.44071822  0.98791824  0.96643927    -0.00050
C890        C  0.43516997  0.98389369  0.91433673    -0.11920
C891        C  0.40898876  0.97776910  0.89462554     0.02190
C892        C  0.38819949  0.97592780  0.92756204    -0.00130
C893        C  0.39380362  0.97979362  0.97971448    -0.11860
C894        C  0.41982535  0.98563569  0.99941788     0.02070
H895        H  0.45132743  0.98530628  0.88920619     0.15050
H896        H  0.37797350  0.97890994  0.00505323     0.15050
C897        C  0.42448793  0.48950899  0.05318598     0.36710
C898        C  0.40376472  0.97298468  0.84100709     0.36610
N899        N  0.42760039  0.49256755  0.09645244    -0.43640
N900        N  0.39960290  0.96909615  0.79803853    -0.43630
C901        C  0.09062178  0.60769518  0.94900663    -0.00050
C902        C  0.08817744  0.59626955  0.99725426    -0.11920
C903        C  0.06522962  0.56958477  0.00901576     0.02190
C904        C  0.04418256  0.55392710  0.97212060    -0.00130
C905        C  0.04623322  0.56587396  0.92451376    -0.11860
C906        C  0.06924679  0.59231563  0.91260679     0.02070
H907        H  0.10441653  0.60808953  0.02555325     0.15050
H908        H  0.02996390  0.55420970  0.89616790     0.15050
C909        C  0.07045530  0.60334831  0.86278771     0.36710
C910        C  0.06357175  0.55900585  0.05931369     0.36610
N911        N  0.07143827  0.61221453  0.82287335    -0.43640
N912        N  0.06249009  0.55074344  0.09979972    -0.43630
C913        C  0.05175027  0.00538955  0.98148399    -0.00050
C914        C  0.06311237  0.00206681  0.02650606    -0.11920
C915        C  0.08930478  0.00377712  0.02728675     0.02190
C916        C  0.10383099  0.00715237  0.98150478    -0.00130
C917        C  0.09258228  0.01114290  0.93654428    -0.11860
C918        C  0.06706521  0.01089238  0.93639794     0.02070
H919        H  0.05144333  0.99828172  0.06131634     0.15050
H920        H  0.10336296  0.51382391  0.90107250     0.15050
C921        C  0.05696742  0.51585579  0.88939848     0.36710
C922        C  0.10088402  0.00284917  0.07588220     0.36610
N923        N  0.04933299  0.52016177  0.85147642    -0.43640
N924        N  0.10979842  0.00205879  0.11517863    -0.43630
C925        C  0.00169649  0.94886404  0.98696411    -0.00050
C926        C  0.49769020  0.93358996  0.03130808    -0.11920
C927        C  0.49337588  0.90658362  0.02965477     0.02190
C928        C  0.49499938  0.89501919  0.98304687    -0.00130
C929        C  0.99967954  0.91075865  0.93893244    -0.11860
C930        C  0.00210342  0.93691689  0.94035252     0.02070
H931        H  0.49616452  0.94214552  0.06702208     0.15050
H932        H  0.00091431  0.90238533  0.90279169     0.15050
C933        C  0.00244432  0.94982144  0.89300621     0.36710
C934        C  0.48503731  0.89055820  0.07569368     0.36610
N935        N  0.00200155  0.95943243  0.85457008    -0.43640
N936        N  0.47818236  0.87778267  0.11266785    -0.43630
C937        C  0.44658191  0.94205164  0.99783042    -0.00050
C938        C  0.43358869  0.92607983  0.95472964    -0.11920
C939        C  0.40961885  0.89940235  0.95820400     0.02190
C940        C  0.39818828  0.88782442  0.00621440    -0.00130
C941        C  0.41116424  0.90428765  0.04950038    -0.11860
C942        C  0.43516096  0.93118105  0.04562153     0.02070
H943        H  0.44230832  0.93462883  0.91798060     0.15050
H944        H  0.40312702  0.89582117  0.08658005     0.15050
C945        C  0.44825254  0.94694291  0.09116276     0.36710
C946        C  0.39764189  0.88506709  0.91109525     0.36610
N947        N  0.45883986  0.95954705  0.12768075    -0.43640
N948        N  0.38943543  0.87462299  0.87202151    -0.43630
C949        C  0.48685617  0.54383792  0.99165028    -0.00050
C950        C  0.97965616  0.55542019  0.95134291    -0.11920
C951        C  0.97208889  0.57552146  0.96019565     0.02190
C952        C  0.47099274  0.58369294  0.01025576    -0.00130
C953        C  0.47738647  0.57125136  0.05029531    -0.11860
C954        C  0.48569964  0.55194763  0.04139971     0.02070
H955        H  0.98002246  0.54878277  0.91305876     0.15050
H956        H  0.47667027  0.57731308  0.08889728     0.15050
C957        C  0.49256335  0.54035083  0.08413096     0.36710
C958        C  0.96683230  0.58824504  0.91737232     0.36610
N959        N  0.49787036  0.03092184  0.11837041    -0.43640
N960        N  0.96264161  0.59844369  0.88298041    -0.43630
C961        C  0.14382586  0.71341056  0.95895527    -0.00050
C962        C  0.17111091  0.73723208  0.96684523    -0.11920
C963        C  0.17483280  0.76109603  0.99167212     0.02190
C964        C  0.15142152  0.76099857  0.01263882    -0.00130
C965        C  0.12411598  0.73876478  0.00093455    -0.11860
C966        C  0.12009106  0.71570623  0.97255802     0.02070
H967        H  0.18995686  0.73708128  0.95615453     0.15050
H968        H  0.10585986  0.73883856  0.01586673     0.15050
C969        C  0.09136609  0.69516972  0.95775800     0.36710
C970        C  0.20306900  0.78517269  0.99742705     0.36610
N971        N  0.06827446  0.67884910  0.94600993    -0.43640
N972        N  0.22560109  0.80463587  0.00172715    -0.43630
C973        C  0.25883509  0.80080151  0.14848787    -0.00050
C974        C  0.28661402  0.81872316  0.16671865    -0.11920
C975        C  0.31033003  0.82496891  0.13786563     0.02190
C976        C  0.30653032  0.81354372  0.08892487    -0.00130
C977        C  0.27880133  0.79279660  0.07359635    -0.11860
C978        C  0.25520318  0.78568243  0.10382748     0.02070
H979        H  0.28971612  0.82915564  0.20261059     0.15050
H980        H  0.27526212  0.78264470  0.03718871     0.15050
C981        C  0.22765999  0.76305252  0.08816847     0.36710
C982        C  0.33816158  0.84315035  0.15955016     0.36610
N983        N  0.20566181  0.74438817  0.07654362    -0.43640
N984        N  0.36042410  0.85768288  0.17710881    -0.43630
C985        C  0.02810887  0.83034076  0.03888328    -0.00050
C986        C  0.05433341  0.85280314  0.05487529    -0.11920
C987        C  0.07373620  0.84828106  0.08037036     0.02190
C988        C  0.06881074  0.82104345  0.08468794    -0.00130
C989        C  0.04202312  0.79833840  0.07203977    -0.11860
C990        C  0.02122226  0.80279883  0.05102459     0.02070
H991        H  0.05979973  0.87411833  0.04823956     0.15050
H992        H  0.03717295  0.77727741  0.07976293     0.15050
C993        C  0.99279895  0.77903909  0.04490765     0.36710
C994        C  0.09569439  0.87133130  0.10893305     0.36610
N995        N  0.96999752  0.76000991  0.04045262    -0.43640
N996        N  0.11147266  0.88985521  0.13412968    -0.43630
C997        C  0.01428657  0.67566379  0.09267705    -0.00050
C998        C  0.02320770  0.66927727  0.13828091    -0.11920
C999        C  0.04873416  0.68891922  0.16253417     0.02190
C1000       C  0.06604327  0.71535060  0.14084076    -0.00130
C1001       C  0.05727080  0.72167730  0.09532608    -0.11860
C1002       C  0.03188045  0.70217744  0.07105477     0.02070
H1003       H  0.01017629  0.64881653  0.15490474     0.15050
H1004       H  0.07020804  0.74226167  0.07901544     0.15050
C1005       C  0.02495546  0.70959953  0.02309641     0.36710
C1006       C  0.05648404  0.68184893  0.21001495     0.36610
N1007       N  0.01948988  0.71558468  0.98461108    -0.43640
N1008       N  0.06281889  0.67627161  0.24806048    -0.43630
C1009       C  0.29028259  0.94002115  0.96929391    -0.00050
C1010       C  0.29918712  0.94148438  0.01969713    -0.11920
C1011       C  0.28132373  0.92272316  0.05622624     0.02190
C1012       C  0.25305264  0.90193074  0.04330111    -0.00130
C1013       C  0.24374259  0.90136302  0.99301349    -0.11860
C1014       C  0.26206967  0.92002209  0.95619678     0.02070
H1015       H  0.32090694  0.95688237  0.03018523     0.15050
H1016       H  0.22220002  0.88593029  0.98190053     0.15050
C1017       C  0.25185847  0.91751820  0.90495424     0.36710
C1018       C  0.29321052  0.92547985  0.10625668     0.36610
N1019       N  0.24368719  0.91557632  0.86386018    -0.43640
N1020       N  0.30299109  0.92775755  0.14612581    -0.43630
C1021       C  0.16943390  0.92543138  0.08627027    -0.00050
C1022       C  0.16968327  0.94770780  0.11147477    -0.11920
C1023       C  0.16469146  0.96639145  0.08530275     0.02190
C1024       C  0.15909266  0.96277548  0.03317436    -0.00130
C1025       C  0.15999042  0.94153044  0.00734890    -0.11860
C1026       C  0.16541787  0.92304947  0.03297915     0.02070
H1027       H  0.17326895  0.95037371  0.15192927     0.15050
H1028       H  0.15676590  0.93965616  0.96670496     0.15050
C1029       C  0.16682491  0.90227304  0.00282095     0.36710
C1030       C  0.16652736  0.98968452  0.11230518     0.36610
N1031       N  0.16794291  0.88575419  0.97831063    -0.43640
N1032       N  0.16835487  0.50847617  0.13407192    -0.43630
C1033       C  0.30001296  0.85347100  0.44526933    -0.00050
C1034       C  0.30816642  0.85737712  0.39441106    -0.11920
C1035       C  0.29081101  0.85839984  0.35663938     0.02190
C1036       C  0.26407343  0.85433313  0.36943548    -0.00130
C1037       C  0.25679549  0.85192734  0.42104616    -0.11860
C1038       C  0.27446467  0.85150251  0.45871681     0.02070
H1039       H  0.32847885  0.86006857  0.38431929     0.15050
H1040       H  0.23694702  0.84997084  0.43231962     0.15050
C1041       C  0.26639983  0.84995250  0.51089656     0.36710
C1042       C  0.30160745  0.86454724  0.30591718     0.36610
N1043       N  0.26002910  0.84887553  0.55272206    -0.43640
N1044       N  0.31089212  0.87025490  0.26571322    -0.43630
C1045       C  0.16918110  0.73350875  0.33138888    -0.00050
C1046       C  0.15176888  0.70640041  0.31166288    -0.11920
C1047       C  0.15323335  0.68373804  0.33016617     0.02190
C1048       C  0.17221485  0.68772977  0.36999310    -0.00130
C1049       C  0.18948440  0.71477387  0.39010031    -0.11860
C1050       C  0.18822970  0.73756079  0.37110957     0.02070
H1051       H  0.13717179  0.70292708  0.28080544     0.15050
H1052       H  0.20399834  0.71812136  0.42101227     0.15050
C1053       C  0.20773182  0.76491886  0.39140180     0.36710
C1054       C  0.13579244  0.65688441  0.30612126     0.36610
N1055       N  0.22358167  0.78674822  0.40788910    -0.43640
N1056       N  0.12173052  0.63538342  0.28684936    -0.43630
C1057       C  0.03623761  0.85099243  0.36885775    -0.00050
C1058       C  0.06337288  0.87548310  0.36625175    -0.11920
C1059       C  0.08385043  0.87800903  0.33155502     0.02190
C1060       C  0.07781006  0.85539053  0.29954251    -0.00130
C1061       C  0.04991402  0.83184005  0.29998744    -0.11860
C1062       C  0.02943823  0.82948380  0.33377299     0.02070
H1063       H  0.06872573  0.89275187  0.39161698     0.15050
H1064       H  0.04394938  0.81450687  0.27440342     0.15050
C1065       C  0.00137078  0.80491180  0.33048338     0.36710
C1066       C  0.11033748  0.90422590  0.32865736     0.36610
N1067       N  0.97892727  0.78518267  0.32783308    -0.43640
N1068       N  0.13127279  0.92548832  0.32516660    -0.43630
C1069       C  0.31638500  0.97983622  0.34994245    -0.00050
C1070       C  0.30141291  0.98932250  0.32039683    -0.11920
C1071       C  0.27819002  0.97096401  0.28923298     0.02190
C1072       C  0.26997880  0.94266875  0.28619290    -0.00130
C1073       C  0.28503001  0.93336520  0.31539506    -0.11860
C1074       C  0.30751683  0.95126012  0.34736493     0.02070
H1075       H  0.30772205  0.01114662  0.32200608     0.15050
H1076       H  0.27854395  0.91148781  0.31454632     0.15050
C1077       C  0.31963443  0.93907643  0.37945763     0.36710
C1078       C  0.26356841  0.98163164  0.26013985     0.36610
N1079       N  0.32923680  0.92920446  0.40512166    -0.43640
N1080       N  0.25178637  0.99012354  0.23674291    -0.43630
C1081       C  0.16071569  0.93817219  0.45818153    -0.00050
C1082       C  0.15448152  0.91228903  0.47886442    -0.11920
C1083       C  0.16202124  0.89466479  0.45324561     0.02190
C1084       C  0.17497546  0.90238332  0.40544473    -0.00130
C1085       C  0.18461275  0.93009199  0.38953890    -0.11860
C1086       C  0.17711203  0.94736724  0.41426356     0.02070
H1087       H  0.14386124  0.90589732  0.51489435     0.15050
H1088       H  0.19649751  0.93785681  0.35485470     0.15050
C1089       C  0.18490347  0.97389412  0.39159255     0.36710
C1090       C  0.15917897  0.87065987  0.47873455     0.36610
N1091       N  0.19079700  0.99497552  0.37324464    -0.43640
N1092       N  0.15840854  0.85231026  0.50037046    -0.43630
C1093       C  0.08275788  0.75419606  0.37835792    -0.00050
C1094       C  0.06798881  0.72664479  0.36034023    -0.11920
C1095       C  0.05641564  0.70422912  0.39387123     0.02190
C1096       C  0.06052851  0.70939946  0.44639428    -0.00130
C1097       C  0.07513862  0.73705524  0.46408692    -0.11860
C1098       C  0.08531686  0.75927521  0.43064313     0.02070
H1099       H  0.06615302  0.72260894  0.32000672     0.15050
H1100       H  0.07741851  0.74126285  0.50437711     0.15050
C1101       C  0.09640102  0.78696537  0.45067858     0.36710
C1102       C  0.03943726  0.67638035  0.37336262     0.36610
N1103       N  0.10428762  0.80899903  0.46676231    -0.43640
N1104       N  0.02572568  0.65411211  0.35676857    -0.43630
C1105       C  0.45006771  0.95661734  0.49869934    -0.00050
C1106       C  0.43518093  0.94108064  0.45608520    -0.11920
C1107       C  0.40947784  0.91591905  0.46099410     0.02190
C1108       C  0.39754329  0.90643748  0.50942988    -0.00130
C1109       C  0.41248410  0.92210251  0.55212230    -0.11860
C1110       C  0.43868580  0.94694137  0.54712604     0.02070
H1111       H  0.44427202  0.94817028  0.41898298     0.15050
H1112       H  0.40356109  0.91505758  0.58932637     0.15050
C1113       C  0.45381568  0.96171501  0.59229284     0.36710
C1114       C  0.39653664  0.89972210  0.41571424     0.36610
N1115       N  0.46595039  0.97327618  0.62874122    -0.43640
N1116       N  0.38643128  0.88691642  0.37918321    -0.43630
C1117       C  0.02145065  0.61118804  0.50642452    -0.00050
C1118       C  0.02174055  0.60125814  0.45773614    -0.11920
C1119       C  0.01829404  0.57493588  0.45089056     0.02190
C1120       C  0.01373264  0.55796696  0.49318290    -0.00130
C1121       C  0.01182899  0.56703003  0.54135319    -0.11860
C1122       C  0.01667388  0.59376438  0.54858995     0.02070
H1123       H  0.02483347  0.61409830  0.42497153     0.15050
H1124       H  0.50889412  0.55395671  0.57376339     0.15050
C1125       C  0.51898990  0.60323143  0.60001148     0.36710
C1126       C  0.02074287  0.56623536  0.40087243     0.36610
N1127       N  0.52095813  0.61019452  0.64168766    -0.43640
N1128       N  0.02283356  0.55930470  0.36080740    -0.43630
C1129       C  0.06793011  0.55352123  0.49617352    -0.00050
C1130       C  0.07485766  0.58165231  0.49817728    -0.11920
C1131       C  0.10126656  0.60390967  0.48354878     0.02190
C1132       C  0.12228934  0.59869409  0.46634562    -0.00130
C1133       C  0.11792254  0.57203353  0.47584063    -0.11860
C1134       C  0.09247491  0.55120977  0.49783071     0.02070
H1135       H  0.06158302  0.58774789  0.51542812     0.15050
H1136       H  0.13533245  0.56837905  0.47183836     0.15050
C1137       C  0.09674015  0.53796752  0.54091825     0.36710
C1138       C  0.10667638  0.63191805  0.49056298     0.36610
N1139       N  0.10108380  0.52868139  0.57654323    -0.43640
N1140       N  0.11084505  0.65424061  0.49634216    -0.43630
C1141       C  0.41098604  0.51539684  0.44310702    -0.00050
C1142       C  0.41762951  0.51473864  0.49445727    -0.11920
C1143       C  0.44137061  0.01323917  0.50963724     0.02190
C1144       C  0.45882902  0.51120540  0.47327007    -0.00130
C1145       C  0.45237364  0.51190204  0.42192010    -0.11860
C1146       C  0.42920716  0.51453372  0.40665766     0.02070
H1147       H  0.40417034  0.01548604  0.52329131     0.15050
H1148       H  0.46580067  0.51074652  0.39351527     0.15050
C1149       C  0.42564895  0.51783873  0.35356869     0.36710
C1150       C  0.44767184  0.01494197  0.56286223     0.36610
N1151       N  0.42294632  0.52068258  0.31100478    -0.43640
N1152       N  0.45236306  0.01702740  0.60581813    -0.43630
C1153       C  0.05277636  0.49166425  0.48210042    -0.00050
C1154       C  0.05660577  0.47744094  0.52218345    -0.11920
C1155       C  0.07584727  0.46828968  0.51930943     0.02190
C1156       C  0.09281290  0.47415400  0.47620993    -0.00130
C1157       C  0.08813403  0.48712518  0.43473348    -0.11860
C1158       C  0.06773739  0.49522466  0.43694337     0.02070
H1159       H  0.04578244  0.47511419  0.55731848     0.15050
H1160       H  0.10147850  0.49231522  0.40181071     0.15050
C1161       C  0.06329341  0.50816236  0.39354955     0.36710
C1162       C  0.07999413  0.45548665  0.56334156     0.36610
N1163       N  0.05961493  0.51853714  0.35885248    -0.43640
N1164       N  0.08342172  0.44534270  0.59866040    -0.43630
C1165       C  0.49578696  0.94830566  0.47720233    -0.00050
C1166       C  0.49417784  0.94069552  0.42631775    -0.11920
C1167       C  0.49067475  0.91497435  0.41301896     0.02190
C1168       C  0.48960781  0.89692217  0.45128844    -0.00130
C1169       C  0.48985435  0.90411743  0.50211591    -0.11860
C1170       C  0.49238426  0.92932732  0.51536545     0.02070
H1171       H  0.49600285  0.95509791  0.39704358     0.15050
H1172       H  0.48918933  0.89043773  0.53183690     0.15050
C1173       C  0.49347764  0.93572284  0.56835825     0.36710
C1174       C  0.48780200  0.90748988  0.36022246     0.36610
N1175       N  0.49496804  0.94035780  0.61120022    -0.43640
N1176       N  0.48541835  0.90151456  0.31788485    -0.43630
C1177       C  0.23183619  0.66272109  0.82252183    -0.00050
C1178       C  0.20623348  0.65330496  0.79541873    -0.11920
C1179       C  0.18300701  0.65330128  0.81717567     0.02190
C1180       C  0.18509250  0.66325811  0.86684140    -0.00130
C1181       C  0.21056181  0.67295677  0.89384332    -0.11860
C1182       C  0.23368077  0.67261483  0.87257758     0.02070
H1183       H  0.20416359  0.64561565  0.75711247     0.15050
H1184       H  0.21222635  0.68045683  0.93222273     0.15050
C1185       C  0.25902866  0.68303918  0.90317017     0.36710
C1186       C  0.15738432  0.64341260  0.78755131     0.36610
N1187       N  0.27915051  0.69131552  0.92823176    -0.43640
N1188       N  0.13685004  0.63552540  0.76379903    -0.43630
C1189       C  0.34947312  0.74983087  0.88414271    -0.00050
C1190       C  0.34865208  0.77307150  0.86671311    -0.11920
C1191       C  0.34800047  0.79172555  0.90052777     0.02190
C1192       C  0.35101141  0.78883539  0.95260330    -0.00130
C1193       C  0.35114030  0.76544445  0.97054593    -0.11860
C1194       C  0.34914580  0.74528611  0.93703509     0.02070
H1195       H  0.34661223  0.77569691  0.82660404     0.15050
H1196       H  0.35197212  0.76257706  0.01091995     0.15050
C1197       C  0.34526933  0.71989232  0.95881861     0.36710
C1198       C  0.34060217  0.81135933  0.88149961     0.36610
N1199       N  0.34150512  0.69950533  0.97730682    -0.43640
N1200       N  0.33348944  0.82620585  0.86620465    -0.43630
C1201       C  0.44123642  0.67284266  0.61571665    -0.00050
C1202       C  0.45746685  0.66471338  0.64424648    -0.11920
C1203       C  0.47998855  0.66393975  0.62275422     0.02190
C1204       C  0.48584806  0.67039959  0.57143064    -0.00130
C1205       C  0.47036576  0.67938302  0.54324933    -0.11860
C1206       C  0.44866185  0.68138218  0.56514566     0.02070
H1207       H  0.45257840  0.65879200  0.68350949     0.15050
H1208       H  0.47528389  0.68487538  0.50380625     0.15050
C1209       C  0.43530691  0.69312702  0.53509487     0.36710
C1210       C  0.49746089  0.65783504  0.65477113     0.36610
N1211       N  0.42486792  0.70275873  0.51097775    -0.43640
N1212       N  0.01148846  0.65346569  0.68143618    -0.43630
C1213       C  0.41653601  0.76196329  0.56675252    -0.00050
C1214       C  0.44424728  0.78115055  0.58359841    -0.11920
C1215       C  0.46477229  0.80027879  0.55008297     0.02190
C1216       C  0.45772144  0.80048919  0.49875763    -0.00130
C1217       C  0.43007917  0.78141769  0.48196592    -0.11860
C1218       C  0.40962107  0.76218929  0.51518554     0.02070
H1219       H  0.45000513  0.78090982  0.62278595     0.15050
H1220       H  0.42419246  0.78224367  0.44307948     0.15050
C1221       C  0.38135606  0.74358513  0.49564550     0.36710
C1222       C  0.49281337  0.81999549  0.56923258     0.36610
N1223       N  0.35877445  0.72864209  0.47974160    -0.43640
N1224       N  0.01534160  0.83581720  0.58436760    -0.43630
C1225       C  0.44030727  0.75872644  0.82341995    -0.00050
C1226       C  0.46367427  0.78441193  0.80831469    -0.11920
C1227       C  0.47667703  0.80717484  0.84199452     0.02190
C1228       C  0.46541783  0.80469611  0.89058967    -0.00130
C1229       C  0.44201587  0.77934646  0.90529290    -0.11860
C1230       C  0.42959035  0.75659688  0.87249412     0.02070
H1231       H  0.47150186  0.78674702  0.77012495     0.15050
H1232       H  0.43390087  0.77712494  0.94330870     0.15050
C1233       C  0.40566601  0.73134351  0.89069582     0.36710
C1234       C  0.00180741  0.83261315  0.82666239     0.36610
N1235       N  0.38701707  0.71117828  0.90715561    -0.43640
N1236       N  0.02206367  0.85305442  0.81479610    -0.43630
C1237       C  0.42395912  0.64119380  0.98893584    -0.00050
C1238       C  0.43570826  0.66659114  0.96354047    -0.11920
C1239       C  0.41981832  0.67241766  0.92970511     0.02190
C1240       C  0.39014093  0.65350280  0.92245434    -0.00130
C1241       C  0.37769618  0.62856561  0.95057707    -0.11860
C1242       C  0.39435163  0.62207644  0.98275200     0.02070
H1243       H  0.45841130  0.68117397  0.96644543     0.15050
H1244       H  0.35553057  0.61306208  0.94413916     0.15050
C1245       C  0.38074887  0.59535422  0.00757511     0.36710
C1246       C  0.43631214  0.69647439  0.89837729     0.36610
N1247       N  0.36985296  0.57383115  0.02721514    -0.43640
N1248       N  0.45141832  0.71553224  0.87406124    -0.43630
C1249       C  0.32131222  0.76167805  0.63256515    -0.00050
C1250       C  0.34604181  0.77708175  0.60387160    -0.11920
C1251       C  0.35086522  0.80002545  0.57512741     0.02190
C1252       C  0.33121627  0.80913613  0.57598950    -0.00130
C1253       C  0.30609974  0.79347836  0.60418431    -0.11860
C1254       C  0.30096763  0.76978773  0.63211422     0.02070
H1255       H  0.36156361  0.77062903  0.60285399     0.15050
H1256       H  0.29064411  0.79998383  0.60495413     0.15050
C1257       C  0.27548696  0.75492906  0.66151914     0.36710
C1258       C  0.37549834  0.81273760  0.54303881     0.36610
N1259       N  0.25508371  0.74298806  0.68524088    -0.43640
N1260       N  0.39522291  0.82279632  0.51735576    -0.43630
C1261       C  0.27983317  0.66448169  0.50644648    -0.00050
C1262       C  0.26081365  0.63742666  0.48838939    -0.11920
C1263       C  0.23596170  0.63137859  0.46192597     0.02190
C1264       C  0.22961969  0.65266363  0.45390357    -0.00130
C1265       C  0.25028975  0.68017568  0.46752662    -0.11860
C1266       C  0.27516937  0.68616006  0.49301671     0.02070
H1267       H  0.26402763  0.62049942  0.49893365     0.15050
H1268       H  0.24623229  0.69699562  0.46168455     0.15050
C1269       C  0.29450503  0.71456725  0.50855816     0.36710
C1270       C  0.21701311  0.60303685  0.44515600     0.36610
N1271       N  0.30983296  0.73760231  0.51982170    -0.43640
N1272       N  0.20186039  0.58027062  0.43191724    -0.43630
C1273       C  0.35276687  0.56831264  0.78835971    -0.00050
C1274       C  0.33100058  0.54097294  0.77475718    -0.11920
C1275       C  0.32556729  0.51763170  0.80313404     0.02190
C1276       C  0.34206183  0.52103098  0.84633041    -0.00130
C1277       C  0.36477398  0.54796343  0.85868516    -0.11860
C1278       C  0.37042033  0.57142010  0.83005949     0.02070
H1279       H  0.31752952  0.53770397  0.74216811     0.15050
H1280       H  0.37826852  0.55066247  0.89096334     0.15050
C1281       C  0.39440226  0.59814137  0.84466021     0.36710
C1282       C  0.30342909  0.49032973  0.78631216     0.36610
N1283       N  0.41398809  0.61936759  0.85622866    -0.43640
N1284       N  0.28574765  0.96846159  0.77268189    -0.43630
C1285       C  0.19996761  0.53820252  0.91040742    -0.00050
C1286       C  0.22663592  0.55414624  0.93360168    -0.11920
C1287       C  0.25077027  0.56994507  0.90490267     0.02190
C1288       C  0.24829244  0.57012882  0.85184044    -0.00130
C1289       C  0.22171256  0.55335674  0.82842511    -0.11860
C1290       C  0.19749634  0.53737067  0.85740473     0.02070
H1291       H  0.22855572  0.55410424  0.97442039     0.15050
H1292       H  0.21966326  0.55365775  0.78768488     0.15050
C1293       C  0.17054995  0.52003097  0.83213222     0.36710
C1294       C  0.27776082  0.58578565  0.93093720     0.36610
N1295       N  0.14895459  0.50609171  0.81190108    -0.43640
N1296       N  0.29928780  0.59849663  0.95201186    -0.43630
C1297       C  0.18729013  0.52678468  0.55366582    -0.00050
C1298       C  0.17701153  0.53587958  0.59355466    -0.11920
C1299       C  0.19525234  0.55978616  0.62218735     0.02190
C1300       C  0.22435091  0.57476597  0.61162156    -0.00130
C1301       C  0.23447066  0.56644448  0.57075180    -0.11860
C1302       C  0.21633899  0.54292889  0.54160461     0.02070
H1303       H  0.15468827  0.52396681  0.60302580     0.15050
H1304       H  0.25699218  0.57805073  0.56245955     0.15050
C1305       C  0.22817452  0.53626382  0.49926202     0.36710
C1306       C  0.18395275  0.56798919  0.66313649     0.36610
N1307       N  0.23786253  0.53103407  0.46550492    -0.43640
N1308       N  0.17494052  0.57474719  0.69579785    -0.43630
C1309       C  0.34689123  0.55136042  0.48738233    -0.00050
C1310       C  0.35290522  0.55180837  0.53916939    -0.11920
C1311       C  0.34735606  0.56739581  0.57339469     0.02190
C1312       C  0.33459017  0.58233942  0.55650966    -0.00130
C1313       C  0.32840163  0.58191617  0.50487461    -0.11860
C1314       C  0.33450397  0.56676119  0.47029806     0.02070
H1315       H  0.36241975  0.54020945  0.55304655     0.15050
H1316       H  0.31931368  0.59397603  0.49136866     0.15050
C1317       C  0.32907598  0.56857696  0.41740714     0.36710
C1318       C  0.35740033  0.56962527  0.62466872     0.36610
N1319       N  0.32460281  0.56999367  0.37506476    -0.43640
N1320       N  0.36617305  0.57153802  0.66525087    -0.43630
O1321       O  0.84196480  0.12662100  0.57637974    -0.86380
O1322       O  0.78547724  0.11571256  0.84164041    -0.86550
O1323       O  0.82868052  0.08550543  0.74222733    -0.88220
O1324       O  0.76219874  0.08747074  0.66574478    -0.86970
O1325       O  0.74942985  0.12013426  0.65118166    -0.86560
O1326       O  0.87388105  0.11777659  0.76789010    -0.87930
O1327       O  0.77536992  0.08459753  0.77689356    -0.86410
O1328       O  0.81839930  0.09124808  0.63346032    -0.86000
Zr1329     Zr  0.80745639  0.11009154  0.70792111     2.84310
O1330       O  0.79001982  0.13629712  0.74416074    -1.07970
O1331       O  0.85366479  0.13969594  0.68066407    -1.08700
C1332       C  0.83097809  0.10112033  0.59083623     1.06730
C1333       C  0.77162496  0.09127001  0.82160133     1.06670
C1334       C  0.85243675  0.09227541  0.76372519     1.09650
C1335       C  0.74594560  0.09539147  0.64664148     1.07430
H1336       H  0.83477624  0.12253795  0.80298743     0.32990
O1337       O  0.83579647  0.13510983  0.77704522    -1.28920
H1338       H  0.79631912  0.12932426  0.61797299     0.32660
O1339       O  0.80693781  0.13987662  0.64726478    -1.30600
O1340       O  0.83434426  0.20400846  0.85858009    -0.86380
O1341       O  0.88325808  0.21495543  0.58377428    -0.87870
O1342       O  0.88953697  0.15924952  0.83592215    -0.86450
O1343       O  0.75663629  0.16384326  0.74821363    -0.86500
O1344       O  0.78263129  0.16744264  0.59323079    -0.86210
O1345       O  0.91600027  0.17054741  0.68815504    -0.86020
O1346       O  0.91124870  0.24634275  0.75307561    -0.86390
O1347       O  0.84249569  0.24576962  0.68831077    -0.85850
O1348       O  0.91581890  0.21176672  0.78954282    -0.86920
O1349       O  0.79811742  0.21320759  0.65872491    -0.86070
O1350       O  0.85128689  0.15561547  0.87737626    -0.86470
O1351       O  0.89726688  0.17073397  0.61052634    -0.86190
O1352       O  0.81950310  0.16757725  0.55254475    -0.85850
O1353       O  0.77494800  0.16149780  0.82519199    -0.86250
O1354       O  0.85895690  0.23954794  0.80222231    -0.86550
O1355       O  0.89338660  0.24677768  0.64710200    -0.87890
Zr1356     Zr  0.81945849  0.16162281  0.81321494     2.83100
Zr1357     Zr  0.85265650  0.16931440  0.61900257     2.83500
Zr1358     Zr  0.88207514  0.16532221  0.74984804     2.84090
Zr1359     Zr  0.78882767  0.16598588  0.68272511     2.83360
Zr1360     Zr  0.86407527  0.22121556  0.72112208     2.84220
O1361       O  0.83496763  0.19561087  0.65351777    -1.08460
O1362       O  0.86492750  0.19203618  0.78382637    -1.07960
C1363       C  0.84780700  0.22984820  0.84603106     1.06700
C1364       C  0.89623002  0.23997575  0.60159344     1.09320
C1365       C  0.87546154  0.15604707  0.87611939     1.06870
C1366       C  0.75608058  0.16261990  0.79710417     1.07230
C1367       C  0.79561057  0.16707937  0.55339673     1.06820
C1368       C  0.91660241  0.17147860  0.63960326     1.06370
C1369       C  0.92241301  0.23763643  0.78501405     1.06790
C1370       C  0.81964422  0.23860186  0.66321736     1.06310
H1371       H  0.90147060  0.20776018  0.67668368     0.32980
O1372       O  0.88222013  0.19520865  0.68734625    -1.29560
H1373       H  0.81104880  0.20273144  0.76517917     0.33010
O1374       O  0.81816369  0.19161202  0.75116815    -1.30940
C1375       C  0.97917181  0.48104226  0.49215976     0.02390
C1376       C  0.00211656  0.47688222  0.48855532     0.02390
C1377       C  0.53065980  0.99962449  0.48761060     0.02390
C1378       C  0.53674623  0.02795706  0.49282440     0.02390
C1379       C  0.51198192  0.03102874  0.48944379     0.02390
C1380       C  0.98371413  0.00782730  0.48694576     0.02390
C1381       C  0.50781223  0.16798297  0.54555671     0.03240
C1382       C  0.50619423  0.14233643  0.54261713    -0.12910
C1383       C  0.52490610  0.13910100  0.51186657     0.00740
C1384       C  0.54456679  0.16175332  0.48238246    -0.11440
C1385       C  0.54497901  0.18703964  0.48348855     0.03230
C1386       C  0.52742677  0.19025973  0.51678596    -0.10860
H1387       H  0.48926005  0.12454885  0.56204585     0.08820
H1388       H  0.55865982  0.15943341  0.45728139     0.06350
H1389       H  0.52730192  0.20958571  0.51739747     0.06200
C1390       C  0.65177327  0.45666525  0.48236712     0.03240
C1391       C  0.67186286  0.98004923  0.51089161    -0.12910
C1392       C  0.66681184  0.00162516  0.52365574     0.00740
C1393       C  0.64148664  0.99943508  0.50793421    -0.11440
C1394       C  0.62056943  0.97593618  0.48216912     0.03230
C1395       C  0.62569055  0.45448348  0.46880439    -0.10860
H1396       H  0.69169013  0.98169556  0.52183542     0.08820
H1397       H  0.63751785  0.01601003  0.51710548     0.06350
H1398       H  0.60988320  0.43664313  0.44729176     0.06200
C1399       C  0.85382265  0.03467171  0.45273684     0.03240
C1400       C  0.87956995  0.03517496  0.45830285    -0.12910
C1401       C  0.88528584  0.01738675  0.42987892     0.00740
C1402       C  0.86515546  0.00008989  0.39276187    -0.11440
C1403       C  0.83918592  0.99944507  0.38622455     0.03230
C1404       C  0.83375749  0.01646251  0.41719323    -0.10860
H1405       H  0.89508217  0.04915514  0.48586912     0.08820
H1406       H  0.86922209  0.48644369  0.37021863     0.06350
H1407       H  0.81319017  0.01463294  0.41499197     0.06200
C1408       C  0.51462952  0.34939252  0.40493257     0.03240
C1409       C  0.99741166  0.32541063  0.43467285    -0.12910
C1410       C  0.97620908  0.32439626  0.46576201     0.00740
C1411       C  0.97245572  0.34715301  0.46733852    -0.11440
C1412       C  0.99023708  0.37142258  0.44050250     0.03230
C1413       C  0.51106343  0.37238863  0.40914616    -0.10860
H1414       H  0.00050253  0.30780621  0.43386361     0.08820
H1415       H  0.95626870  0.34638579  0.49154595     0.06350
H1416       H  0.52488809  0.39133425  0.38859933     0.06200
C1417       C  0.70119760  0.14700046  0.43584344     0.03680
C1418       C  0.67587556  0.12475990  0.45598018    -0.12910
C1419       C  0.64927657  0.12130655  0.44343593     0.00740
C1420       C  0.64841972  0.14074841  0.41093964    -0.11440
C1421       C  0.67334001  0.16409262  0.39356476     0.03230
C1422       C  0.69948446  0.16643422  0.40441220    -0.10860
H1423       H  0.67700376  0.11113810  0.48368909     0.08820
H1424       H  0.62820845  0.13857332  0.40139196     0.06350
H1425       H  0.71866308  0.18414655  0.38976785     0.06200
C1426       C  0.83628527  0.33422080  0.54663468     0.03240
C1427       C  0.86317313  0.35923308  0.54746351    -0.12910
C1428       C  0.86875196  0.38150157  0.51525046     0.00740
C1429       C  0.84683827  0.37968671  0.48563540    -0.11440
C1430       C  0.82043187  0.35524275  0.48361384     0.03230
C1431       C  0.81491322  0.33254230  0.51440570    -0.10860
H1432       H  0.88003466  0.36100061  0.57158455     0.08820
H1433       H  0.85072940  0.39714296  0.46199691     0.06350
H1434       H  0.79453825  0.31329974  0.51155420     0.06200
O1435       O  0.62666202  0.29224085  0.35759689    -0.86380
O1436       O  0.61469784  0.32741794  0.08806922    -0.86550
O1437       O  0.59140769  0.32773557  0.25705574    -0.88220
O1438       O  0.58396317  0.25626234  0.18718710    -0.86970
O1439       O  0.61513314  0.24200248  0.16761654    -0.86560
O1440       O  0.62569007  0.37382788  0.26535308    -0.87930
O1441       O  0.58352534  0.30512963  0.15296261    -0.86410
O1442       O  0.59062960  0.27638352  0.29888111    -0.86000
Zr1443     Zr  0.61122908  0.30257435  0.22142648     2.84310
O1444       O  0.63470548  0.29616009  0.15486240    -1.07970
O1445       O  0.64241662  0.33655952  0.27830456    -1.08700
C1446       C  0.60075234  0.27635003  0.34307124     1.06730
C1447       C  0.59009067  0.31661974  0.10922974     1.06670
C1448       C  0.59991251  0.35278555  0.27123671     1.09650
C1449       C  0.58999216  0.23885436  0.16826356     1.07430
H1450       H  0.62748682  0.35278409  0.16916828     0.32990
O1451       O  0.63895687  0.34537007  0.18055293    -1.28920
H1452       H  0.62822696  0.26876125  0.26988644     0.32660
O1453       O  0.63970184  0.28684233  0.25459490    -1.30600
O1454       O  0.70613994  0.36766704  0.06824273    -0.86380
O1455       O  0.71671568  0.33809462  0.34864015    -0.87870
O1456       O  0.67260403  0.40704377  0.16541939    -0.86450
O1457       O  0.65895944  0.26859439  0.09919627    -0.86500
O1458       O  0.66534853  0.25400564  0.25711537    -0.86210
O1459       O  0.67424849  0.39222036  0.32123518    -0.86020
O1460       O  0.75173608  0.40429282  0.23232600    -0.86390
O1461       O  0.74475483  0.33010582  0.18191986    -0.85850
O1462       O  0.72080525  0.41786108  0.25750480    -0.86920
O1463       O  0.70970017  0.28463500  0.16787236    -0.86070
O1464       O  0.66668293  0.38209042  0.09327184    -0.86470
O1465       O  0.67230274  0.35851985  0.37286828    -0.86190
O1466       O  0.67141002  0.27780513  0.33163177    -0.85850
O1467       O  0.65539809  0.30152696  0.05312454    -0.86250
O1468       O  0.74224040  0.38031411  0.12543053    -0.86550
O1469       O  0.74888842  0.35715328  0.28468359    -0.87890
Zr1470     Zr  0.66245610  0.33832845  0.11384862     2.83100
Zr1471     Zr  0.67036533  0.32094856  0.31399832     2.83500
Zr1472     Zr  0.67141107  0.37894674  0.23650777     2.84090
Zr1473     Zr  0.66403643  0.28119716  0.18762781     2.83360
Zr1474     Zr  0.72352443  0.35637460  0.20656161     2.84220
O1475       O  0.69474809  0.31424531  0.24765337    -1.08460
O1476       O  0.69523275  0.37192758  0.17120348    -1.07960
C1477       C  0.73258881  0.38182110  0.08139201     1.06700
C1478       C  0.74205771  0.34989316  0.33137419     1.09320
C1479       C  0.67024800  0.40371393  0.11694161     1.06870
C1480       C  0.65545024  0.27843246  0.05758473     1.07230
C1481       C  0.66873843  0.25686404  0.30544296     1.06820
C1482       C  0.67402537  0.38259655  0.36504978     1.06370
C1483       C  0.74601409  0.42113735  0.25478880     1.06790
C1484       C  0.73604240  0.30485265  0.16842311     1.06310
H1485       H  0.71179871  0.37510642  0.29732224     0.32980
O1486       O  0.69899027  0.36251529  0.27183214    -1.29560
H1487       H  0.70276901  0.32186751  0.11941431     0.33010
O1488       O  0.69237225  0.32376761  0.14674081    -1.30940
C1489       C  0.94437966  0.13509289  0.01627852     0.03240
C1490       C  0.96635421  0.15595509  0.04720752    -0.12910
C1491       C  0.98902194  0.15310180  0.06493850     0.00740
C1492       C  0.98932672  0.12910654  0.05247689    -0.11440
C1493       C  0.96796424  0.10799738  0.02252429     0.03230
C1494       C  0.94544101  0.11098512  0.00442117    -0.10860
H1495       H  0.96637807  0.17488467  0.05590184     0.08820
H1496       H  0.50724549  0.12736611  0.06461243     0.06350
H1497       H  0.92950068  0.09516211  0.97965530     0.06200
C1498       C  0.99192182  0.02053913  0.98298753     0.02390
C1499       C  0.96843732  0.49321810  0.98435151     0.02390
C1500       C  0.97200591  0.47042065  0.99160281     0.02390
C1501       C  0.49929898  0.47426540  0.98898857     0.02390
C1502       C  0.52316599  0.50161389  0.98294256     0.02390
C1503       C  0.51963812  0.02507775  0.98139108     0.02390
C1504       C  0.65596079  0.48299205  0.00348830     0.03240
C1505       C  0.67774598  0.50027953  0.97131302    -0.12910
C1506       C  0.67594743  0.02012692  0.94268759     0.00740
C1507       C  0.65226803  0.02309552  0.94683949    -0.11440
C1508       C  0.62980731  0.50536467  0.97894286     0.03230
C1509       C  0.63166646  0.48483079  0.00644127    -0.10860
H1510       H  0.69633002  0.49832453  0.96868267     0.08820
H1511       H  0.65155094  0.03925694  0.92550600     0.06350
H1512       H  0.61420671  0.46993896  0.02945513     0.06200
C1513       C  0.50966022  0.33626642  0.00657721     0.03240
C1514       C  0.99667105  0.31956835  0.96424556    -0.12910
C1515       C  0.98086092  0.32539468  0.93071974     0.00740
C1516       C  0.97886687  0.34918976  0.93785026    -0.11440
C1517       C  0.99309516  0.36738536  0.97898918     0.03230
C1518       C  0.50795877  0.36031697  0.01358475    -0.10860
H1519       H  0.99918369  0.30196173  0.95634079     0.08820
H1520       H  0.96654787  0.35356362  0.91135829     0.06350
H1521       H  0.51927739  0.37421541  0.04480014     0.06200
C1522       C  0.64102533  0.18659197  0.93930223     0.03240
C1523       C  0.66209169  0.18713930  0.90803057    -0.12910
C1524       C  0.66070734  0.16235373  0.89276625     0.00740
C1525       C  0.63707896  0.13656183  0.90584544    -0.11440
C1526       C  0.61584164  0.13527967  0.93654141     0.03230
C1527       C  0.61853997  0.16012852  0.95485174    -0.10860
H1528       H  0.67990905  0.20673765  0.89551635     0.08820
H1529       H  0.63563247  0.11740127  0.89343889     0.06350
H1530       H  0.60308600  0.15845109  0.98172407     0.06200
C1531       C  0.83863448  0.49666011  0.87518184     0.03240
C1532       C  0.81354652  0.47800861  0.90168752    -0.12910
C1533       C  0.81265597  0.45649666  0.93135466     0.00740
C1534       C  0.83629990  0.45339480  0.93232219    -0.11440
C1535       C  0.86149426  0.47287406  0.90933196     0.03230
C1536       C  0.86235402  0.49379265  0.87952337    -0.10860
H1537       H  0.79573223  0.48120155  0.90154183     0.08820
H1538       H  0.83620971  0.43754897  0.95613668     0.06350
H1539       H  0.88222861  0.00916942  0.86250003     0.06200
C1540       C  0.85278554  0.30953166  0.98859393     0.03240
C1541       C  0.83155993  0.30195370  0.02414611    -0.12910
C1542       C  0.83079305  0.32228648  0.05370917     0.00740
C1543       C  0.85219041  0.35068100  0.04690815    -0.11440
C1544       C  0.87454580  0.35826521  0.01251380     0.03230
C1545       C  0.87484194  0.33717685  0.98473034    -0.10860
H1546       H  0.81523833  0.28015008  0.02767802     0.08820
H1547       H  0.85121225  0.36687072  0.06746963     0.06350
H1548       H  0.89211836  0.34209686  0.95933679     0.06200
C1549       C  0.94071821  0.48791822  0.96643925    -0.00050
C1550       C  0.93516997  0.48389367  0.91433671    -0.11920
C1551       C  0.90898875  0.47776908  0.89462551     0.02190
C1552       C  0.88819948  0.47592778  0.92756201    -0.00130
C1553       C  0.89380361  0.47979360  0.97971445    -0.11860
C1554       C  0.91982534  0.48563567  0.99941785     0.02070
H1555       H  0.95132742  0.48530626  0.88920617     0.15050
H1556       H  0.87797349  0.47890992  0.00505319     0.15050
C1557       C  0.92448794  0.98950898  0.05318600     0.36710
C1558       C  0.90376471  0.47298466  0.84100706     0.36610
N1559       N  0.92760039  0.99256753  0.09645247    -0.43640
N1560       N  0.89960289  0.46909613  0.79803850    -0.43630
C1561       C  0.59062179  0.10769518  0.94900665    -0.00050
C1562       C  0.58817745  0.09626955  0.99725428    -0.11920
C1563       C  0.56522963  0.06958477  0.00901578     0.02190
C1564       C  0.54418257  0.05392710  0.97212062    -0.00130
C1565       C  0.54623323  0.06587396  0.92451377    -0.11860
C1566       C  0.56924680  0.09231563  0.91260681     0.02070
H1567       H  0.60441654  0.10808953  0.02555327     0.15050
H1568       H  0.52996391  0.05420970  0.89616792     0.15050
C1569       C  0.57045531  0.10334831  0.86278772     0.36710
C1570       C  0.56357176  0.05900585  0.05931371     0.36610
N1571       N  0.57143828  0.11221453  0.82287336    -0.43640
N1572       N  0.56249010  0.05074345  0.09979974    -0.43630
C1573       C  0.55175027  0.50538955  0.98148399    -0.00050
C1574       C  0.56311236  0.50206681  0.02650606    -0.11920
C1575       C  0.58930477  0.50377711  0.02728675     0.02190
C1576       C  0.60383099  0.50715237  0.98150478    -0.00130
C1577       C  0.59258228  0.51114291  0.93654428    -0.11860
C1578       C  0.56706521  0.51089239  0.93639794     0.02070
H1579       H  0.55144331  0.49828171  0.06131633     0.15050
H1580       H  0.60336297  0.01382391  0.90107255     0.15050
C1581       C  0.55696742  0.01585578  0.88939851     0.36710
C1582       C  0.60088401  0.50284915  0.07588220     0.36610
N1583       N  0.54933300  0.02016176  0.85147645    -0.43640
N1584       N  0.60979840  0.50205877  0.11517863    -0.43630
C1585       C  0.50169648  0.44886404  0.98696411    -0.00050
C1586       C  0.99769020  0.43358996  0.03130805    -0.11920
C1587       C  0.99337588  0.40658361  0.02965473     0.02190
C1588       C  0.99499938  0.39501919  0.98304683    -0.00130
C1589       C  0.49967954  0.41075865  0.93893245    -0.11860
C1590       C  0.50210342  0.43691689  0.94035252     0.02070
H1591       H  0.99616451  0.44214551  0.06702205     0.15050
H1592       H  0.50091431  0.40238532  0.90279170     0.15050
C1593       C  0.50244433  0.44982143  0.89300621     0.36710
C1594       C  0.98503730  0.39055820  0.07569364     0.36610
N1595       N  0.50200156  0.45943243  0.85457008    -0.43640
N1596       N  0.97818236  0.37778266  0.11266781    -0.43630
C1597       C  0.94658191  0.44205163  0.99783040    -0.00050
C1598       C  0.93358869  0.42607981  0.95472962    -0.11920
C1599       C  0.90961885  0.39940234  0.95820398     0.02190
C1600       C  0.89818828  0.38782440  0.00621439    -0.00130
C1601       C  0.91116424  0.40428764  0.04950036    -0.11860
C1602       C  0.93516095  0.43118104  0.04562152     0.02070
H1603       H  0.94230832  0.43462881  0.91798058     0.15050
H1604       H  0.90312701  0.39582116  0.08658004     0.15050
C1605       C  0.94825253  0.44694291  0.09116274     0.36710
C1606       C  0.89764191  0.38506707  0.91109523     0.36610
N1607       N  0.95883985  0.45954705  0.12768073    -0.43640
N1608       N  0.88943545  0.37462296  0.87202150    -0.43630
C1609       C  0.98685618  0.04383793  0.99165029    -0.00050
C1610       C  0.47965617  0.05542019  0.95134293    -0.11920
C1611       C  0.47208890  0.07552146  0.96019566     0.02190
C1612       C  0.97099275  0.08369295  0.01025576    -0.00130
C1613       C  0.97738647  0.07125137  0.05029531    -0.11860
C1614       C  0.98569964  0.05194764  0.04139971     0.02070
H1615       H  0.48002247  0.04878278  0.91305877     0.15050
H1616       H  0.97667027  0.07731309  0.08889728     0.15050
C1617       C  0.99256334  0.04035083  0.08413097     0.36710
C1618       C  0.46683231  0.08824504  0.91737233     0.36610
N1619       N  0.99787035  0.53092183  0.11837039    -0.43640
N1620       N  0.46264161  0.09844369  0.88298042    -0.43630
C1621       C  0.64382586  0.21341056  0.95895528    -0.00050
C1622       C  0.67111092  0.23723208  0.96684524    -0.11920
C1623       C  0.67483281  0.26109602  0.99167213     0.02190
C1624       C  0.65142152  0.26099856  0.01263884    -0.00130
C1625       C  0.62411598  0.23876477  0.00093456    -0.11860
C1626       C  0.62009107  0.21570622  0.97255802     0.02070
H1627       H  0.68995687  0.23708128  0.95615453     0.15050
H1628       H  0.60585986  0.23883855  0.01586674     0.15050
C1629       C  0.59136610  0.19516971  0.95775800     0.36710
C1630       C  0.70306900  0.28517268  0.99742706     0.36610
N1631       N  0.56827447  0.17884909  0.94600993    -0.43640
N1632       N  0.72560109  0.30463587  0.00172716    -0.43630
C1633       C  0.75883509  0.30080151  0.14848786    -0.00050
C1634       C  0.78661402  0.31872316  0.16671864    -0.11920
C1635       C  0.81033003  0.32496891  0.13786561     0.02190
C1636       C  0.80653032  0.31354371  0.08892486    -0.00130
C1637       C  0.77880132  0.29279659  0.07359635    -0.11860
C1638       C  0.75520317  0.28568243  0.10382749     0.02070
H1639       H  0.78971612  0.32915565  0.20261058     0.15050
H1640       H  0.77526211  0.28264469  0.03718872     0.15050
C1641       C  0.72765999  0.26305251  0.08816848     0.36710
C1642       C  0.83816158  0.34315035  0.15955015     0.36610
N1643       N  0.70566181  0.24438817  0.07654364    -0.43640
N1644       N  0.86042410  0.35768288  0.17710879    -0.43630
C1645       C  0.52810885  0.33034076  0.03888330    -0.00050
C1646       C  0.55433341  0.35280314  0.05487528    -0.11920
C1647       C  0.57373620  0.34828106  0.08037033     0.02190
C1648       C  0.56881074  0.32104345  0.08468792    -0.00130
C1649       C  0.54202311  0.29833840  0.07203978    -0.11860
C1650       C  0.52122225  0.30279882  0.05102462     0.02070
H1651       H  0.55979972  0.37411833  0.04823953     0.15050
H1652       H  0.53717294  0.27727740  0.07976296     0.15050
C1653       C  0.49279893  0.27903909  0.04490771     0.36710
C1654       C  0.59569440  0.37133130  0.10893299     0.36610
N1655       N  0.46999750  0.26000991  0.04045271    -0.43640
N1656       N  0.61147268  0.38985522  0.13412961    -0.43630
C1657       C  0.51428658  0.17566380  0.09267705    -0.00050
C1658       C  0.52320770  0.16927727  0.13828092    -0.11920
C1659       C  0.54873416  0.18891923  0.16253418     0.02190
C1660       C  0.56604327  0.21535060  0.14084077    -0.00130
C1661       C  0.55727081  0.22167731  0.09532607    -0.11860
C1662       C  0.53188046  0.20217744  0.07105476     0.02070
H1663       H  0.51017629  0.14881654  0.15490474     0.15050
H1664       H  0.57020805  0.24226167  0.07901543     0.15050
C1665       C  0.52495547  0.20959954  0.02309640     0.36710
C1666       C  0.55648403  0.18184894  0.21001496     0.36610
N1667       N  0.51948989  0.21558468  0.98461107    -0.43640
N1668       N  0.56281888  0.17627162  0.24806049    -0.43630
C1669       C  0.79028259  0.44002114  0.96929388    -0.00050
C1670       C  0.79918713  0.44148436  0.01969710    -0.11920
C1671       C  0.78132374  0.42272315  0.05622621     0.02190
C1672       C  0.75305264  0.40193073  0.04330109    -0.00130
C1673       C  0.74374259  0.40136301  0.99301347    -0.11860
C1674       C  0.76206967  0.42002208  0.95619676     0.02070
H1675       H  0.82090695  0.45688235  0.03018519     0.15050
H1676       H  0.72220002  0.38593029  0.98190052     0.15050
C1677       C  0.75185846  0.41751819  0.90495422     0.36710
C1678       C  0.79321053  0.42547982  0.10625664     0.36610
N1679       N  0.74368718  0.41557632  0.86386017    -0.43640
N1680       N  0.80299110  0.42775752  0.14612577    -0.43630
C1681       C  0.66943391  0.42543138  0.08627023    -0.00050
C1682       C  0.66968328  0.44770780  0.11147473    -0.11920
C1683       C  0.66469146  0.46639145  0.08530272     0.02190
C1684       C  0.65909266  0.46277547  0.03317433    -0.00130
C1685       C  0.65999042  0.44153043  0.00734887    -0.11860
C1686       C  0.66541788  0.42304947  0.03297911     0.02070
H1687       H  0.67326897  0.45037371  0.15192923     0.15050
H1688       H  0.65676590  0.43965616  0.96670492     0.15050
C1689       C  0.66682492  0.40227305  0.00282090     0.36710
C1690       C  0.66652736  0.48968451  0.11230516     0.36610
N1691       N  0.66794292  0.38575419  0.97831058    -0.43640
N1692       N  0.66835486  0.00847615  0.13407202    -0.43630
C1693       C  0.80001296  0.35347101  0.44526932    -0.00050
C1694       C  0.80816642  0.35737713  0.39441104    -0.11920
C1695       C  0.79081101  0.35839985  0.35663937     0.02190
C1696       C  0.76407343  0.35433315  0.36943548    -0.00130
C1697       C  0.75679549  0.35192735  0.42104616    -0.11860
C1698       C  0.77446468  0.35150251  0.45871680     0.02070
H1699       H  0.82847886  0.36006858  0.38431927     0.15050
H1700       H  0.73694703  0.34997086  0.43231962     0.15050
C1701       C  0.76639984  0.34995250  0.51089655     0.36710
C1702       C  0.80160745  0.36454725  0.30591716     0.36610
N1703       N  0.76002911  0.34887553  0.55272205    -0.43640
N1704       N  0.81089212  0.37025492  0.26571320    -0.43630
C1705       C  0.66918107  0.23350877  0.33138895    -0.00050
C1706       C  0.65176882  0.20640042  0.31166302    -0.11920
C1707       C  0.65323327  0.18373805  0.33016636     0.02190
C1708       C  0.67221479  0.18772979  0.36999327    -0.00130
C1709       C  0.68948437  0.21477390  0.39010041    -0.11860
C1710       C  0.68822969  0.23756082  0.37110963     0.02070
H1711       H  0.63717172  0.20292709  0.28080559     0.15050
H1712       H  0.70399832  0.21812140  0.42101235     0.15050
C1713       C  0.70773184  0.26491890  0.39140179     0.36710
C1714       C  0.63579232  0.15688441  0.30612152     0.36610
N1715       N  0.72358172  0.28674826  0.40788903    -0.43640
N1716       N  0.62173037  0.13538341  0.28684967    -0.43630
C1717       C  0.53623763  0.35099245  0.36885777    -0.00050
C1718       C  0.56337288  0.37548313  0.36625171    -0.11920
C1719       C  0.58385043  0.37800905  0.33155496     0.02190
C1720       C  0.57781007  0.35539053  0.29954250    -0.00130
C1721       C  0.54991403  0.33184004  0.29998749    -0.11860
C1722       C  0.52943824  0.32948380  0.33377305     0.02070
H1723       H  0.56872573  0.39275191  0.39161691     0.15050
H1724       H  0.54394939  0.31450684  0.27440351     0.15050
C1725       C  0.50137081  0.30491178  0.33048349     0.36710
C1726       C  0.61033746  0.40422594  0.32865722     0.36610
N1727       N  0.47892730  0.28518264  0.32783323    -0.43640
N1728       N  0.63127275  0.42548836  0.32516639    -0.43630
C1729       C  0.81638498  0.47983621  0.34994246    -0.00050
C1730       C  0.80141291  0.48932250  0.32039683    -0.11920
C1731       C  0.77819002  0.47096401  0.28923297     0.02190
C1732       C  0.76997880  0.44266875  0.28619287    -0.00130
C1733       C  0.78503000  0.43336519  0.31539504    -0.11860
C1734       C  0.80751680  0.45126011  0.34736493     0.02070
H1735       H  0.80772205  0.51114662  0.32200609     0.15050
H1736       H  0.77854393  0.41148780  0.31454630     0.15050
C1737       C  0.81963439  0.43907641  0.37945765     0.36710
C1738       C  0.76356842  0.48163165  0.26013983     0.36610
N1739       N  0.82923676  0.42920444  0.40512169    -0.43640
N1740       N  0.75178639  0.49012356  0.23674287    -0.43630
C1741       C  0.66071566  0.43817222  0.45818147    -0.00050
C1742       C  0.65448154  0.41228908  0.47886439    -0.11920
C1743       C  0.66202125  0.39466484  0.45324557     0.02190
C1744       C  0.67497544  0.40238336  0.40544466    -0.00130
C1745       C  0.68461269  0.43009202  0.38953878    -0.11860
C1746       C  0.67711196  0.44736726  0.41426345     0.02070
H1747       H  0.64386128  0.40589739  0.51489435     0.15050
H1748       H  0.69649742  0.43785683  0.35485456     0.15050
C1749       C  0.68490336  0.47389412  0.39159241     0.36710
C1750       C  0.65917901  0.37065993  0.47873451     0.36610
N1751       N  0.69079685  0.49497551  0.37324448    -0.43640
N1752       N  0.65840860  0.35231033  0.50037042    -0.43630
C1753       C  0.58275789  0.25419609  0.37835793    -0.00050
C1754       C  0.56798883  0.22664482  0.36034024    -0.11920
C1755       C  0.55641567  0.20422915  0.39387125     0.02190
C1756       C  0.56052854  0.20939949  0.44639430    -0.00130
C1757       C  0.57513863  0.23705527  0.46408694    -0.11860
C1758       C  0.58531687  0.25927524  0.43064314     0.02070
H1759       H  0.56615304  0.22260897  0.32000673     0.15050
H1760       H  0.57741852  0.24126288  0.50437712     0.15050
C1761       C  0.59640105  0.28696541  0.45067859     0.36710
C1762       C  0.53943730  0.17638038  0.37336264     0.36610
N1763       N  0.60428766  0.30899907  0.46676232    -0.43640
N1764       N  0.52572574  0.15411213  0.35676860    -0.43630
C1765       C  0.95006773  0.45661731  0.49869931    -0.00050
C1766       C  0.93518095  0.44108060  0.45608518    -0.11920
C1767       C  0.90947786  0.41591902  0.46099409     0.02190
C1768       C  0.89754330  0.40643746  0.50942986    -0.00130
C1769       C  0.91248410  0.42210250  0.55212228    -0.11860
C1770       C  0.93868581  0.44694136  0.54712601     0.02070
H1771       H  0.94427204  0.44817024  0.41898296     0.15050
H1772       H  0.90356109  0.41505758  0.58932635     0.15050
C1773       C  0.95381568  0.46171502  0.59229281     0.36710
C1774       C  0.89653666  0.39972206  0.41571424     0.36610
N1775       N  0.96595039  0.47327619  0.62874119    -0.43640
N1776       N  0.88643129  0.38691637  0.37918321    -0.43630
C1777       C  0.52145071  0.11118807  0.50642452    -0.00050
C1778       C  0.52174070  0.10125821  0.45773616    -0.11920
C1779       C  0.51829420  0.07493594  0.45089060     0.02190
C1780       C  0.51373269  0.05796699  0.49318292    -0.00130
C1781       C  0.51182895  0.06703003  0.54135318    -0.11860
C1782       C  0.51667385  0.09376438  0.54858994     0.02070
H1783       H  0.52483369  0.11409838  0.42497155     0.15050
H1784       H  0.00889400  0.05395665  0.57376337     0.15050
C1785       C  0.01898977  0.10323136  0.60001148     0.36710
C1786       C  0.52074310  0.06623544  0.40087250     0.36610
N1787       N  0.02095790  0.11019440  0.64168767    -0.43640
N1788       N  0.52283385  0.05930480  0.36080749    -0.43630
C1789       C  0.56793011  0.05352119  0.49617367    -0.00050
C1790       C  0.57485768  0.08165227  0.49817769    -0.11920
C1791       C  0.60126655  0.10390964  0.48354914     0.02190
C1792       C  0.62228930  0.09869408  0.46634575    -0.00130
C1793       C  0.61792250  0.07203350  0.47584051    -0.11860
C1794       C  0.59247491  0.05120972  0.49783064     0.02070
H1795       H  0.56158305  0.08774781  0.51542877     0.15050
H1796       H  0.63533241  0.06837902  0.47183806     0.15050
C1797       C  0.59674023  0.03796751  0.54091815     0.36710
C1798       C  0.60667638  0.13191802  0.49056348     0.36610
N1799       N  0.60108395  0.02868143  0.57654311    -0.43640
N1800       N  0.61084506  0.15424058  0.49634277    -0.43630
C1801       C  0.91098609  0.01539687  0.44310702    -0.00050
C1802       C  0.91762953  0.01473863  0.49445728    -0.11920
C1803       C  0.94137061  0.51323916  0.50963723     0.02190
C1804       C  0.95882907  0.01120543  0.47327011    -0.00130
C1805       C  0.95237374  0.01190213  0.42192013    -0.11860
C1806       C  0.92920725  0.01453379  0.40665768     0.02070
H1807       H  0.90417036  0.51548607  0.52329132     0.15050
H1808       H  0.96580080  0.01074665  0.39351531     0.15050
C1809       C  0.92564906  0.01783885  0.35356872     0.36710
C1810       C  0.94767187  0.51494200  0.56286222     0.36610
N1811       N  0.92294645  0.02068272  0.31100481    -0.43640
N1812       N  0.95236312  0.51702746  0.60581810    -0.43630
C1813       C  0.55277633  0.99166420  0.48210057    -0.00050
C1814       C  0.55660574  0.97744093  0.52218365    -0.11920
C1815       C  0.57584722  0.96828965  0.51930967     0.02190
C1816       C  0.59281283  0.97415391  0.47621016    -0.00130
C1817       C  0.58813395  0.98712505  0.43473365    -0.11860
C1818       C  0.56773732  0.99522455  0.43694350     0.02070
H1819       H  0.54578242  0.97511422  0.55731868     0.15050
H1820       H  0.60147840  0.99231505  0.40181087     0.15050
C1821       C  0.56329334  0.00816222  0.39354962     0.36710
C1822       C  0.57999409  0.95548666  0.56334185     0.36610
N1823       N  0.55961485  0.01853696  0.35885252    -0.43640
N1824       N  0.58342169  0.94534274  0.59866073    -0.43630
C1825       C  0.99578700  0.44830567  0.47720230    -0.00050
C1826       C  0.99417789  0.44069553  0.42631773    -0.11920
C1827       C  0.99067477  0.41497435  0.41301895     0.02190
C1828       C  0.98960782  0.39692217  0.45128844    -0.00130
C1829       C  0.98985437  0.40411743  0.50211591    -0.11860
C1830       C  0.99238429  0.42932734  0.51536543     0.02070
H1831       H  0.99600290  0.45509792  0.39704355     0.15050
H1832       H  0.98918933  0.39043774  0.53183691     0.15050
C1833       C  0.99347766  0.43572287  0.56835823     0.36710
C1834       C  0.98780202  0.40748987  0.36022246     0.36610
N1835       N  0.99496807  0.44035783  0.61120019    -0.43640
N1836       N  0.98541837  0.40151455  0.31788484    -0.43630
C1837       C  0.73183619  0.16272108  0.82252182    -0.00050
C1838       C  0.70623349  0.15330497  0.79541872    -0.11920
C1839       C  0.68300702  0.15330130  0.81717566     0.02190
C1840       C  0.68509250  0.16325810  0.86684140    -0.00130
C1841       C  0.71056181  0.17295674  0.89384334    -0.11860
C1842       C  0.73368076  0.17261479  0.87257759     0.02070
H1843       H  0.70416359  0.14561567  0.75711245     0.15050
H1844       H  0.71222635  0.18045678  0.93222276     0.15050
C1845       C  0.75902864  0.18303912  0.90317020     0.36710
C1846       C  0.65738434  0.14341265  0.78755129     0.36610
N1847       N  0.77915049  0.19131543  0.92823180    -0.43640
N1848       N  0.63685006  0.13552547  0.76379900    -0.43630
C1849       C  0.84947311  0.24983086  0.88414268    -0.00050
C1850       C  0.84865207  0.27307149  0.86671309    -0.11920
C1851       C  0.84800047  0.29172554  0.90052775     0.02190
C1852       C  0.85101140  0.28883537  0.95260329    -0.00130
C1853       C  0.85114029  0.26544443  0.97054591    -0.11860
C1854       C  0.84914579  0.24528609  0.93703506     0.02070
H1855       H  0.84661222  0.27569690  0.82660402     0.15050
H1856       H  0.85197211  0.26257704  0.01091993     0.15050
C1857       C  0.84526932  0.21989231  0.95881858     0.36710
C1858       C  0.84060217  0.31135932  0.88149960     0.36610
N1859       N  0.84150512  0.19950531  0.97730679    -0.43640
N1860       N  0.83348944  0.32620585  0.86620465    -0.43630
C1861       C  0.94123639  0.17284263  0.61571657    -0.00050
C1862       C  0.95746684  0.16471337  0.64424639    -0.11920
C1863       C  0.97998853  0.16393973  0.62275413     0.02190
C1864       C  0.98584802  0.17039954  0.57143053    -0.00130
C1865       C  0.97036570  0.17938294  0.54324921    -0.11860
C1866       C  0.94866181  0.18138212  0.56514555     0.02070
H1867       H  0.95257841  0.15879201  0.68350942     0.15050
H1868       H  0.97528382  0.18487529  0.50380613     0.15050
C1869       C  0.93530686  0.19312695  0.53509476     0.36710
C1870       C  0.99746090  0.15783506  0.65477105     0.36610
N1871       N  0.92486787  0.20275866  0.51097763    -0.43640
N1872       N  0.51148849  0.15346576  0.68143613    -0.43630
C1873       C  0.91653599  0.26196327  0.56675248    -0.00050
C1874       C  0.94424726  0.28115053  0.58359836    -0.11920
C1875       C  0.96477227  0.30027876  0.55008292     0.02190
C1876       C  0.95772142  0.30048917  0.49875758    -0.00130
C1877       C  0.93007914  0.28141767  0.48196587    -0.11860
C1878       C  0.90962104  0.26218927  0.51518550     0.02070
H1879       H  0.95000511  0.28090979  0.62278590     0.15050
H1880       H  0.92419242  0.28224366  0.44307944     0.15050
C1881       C  0.88135602  0.24358512  0.49564547     0.36710
C1882       C  0.99281335  0.31999546  0.56923252     0.36610
N1883       N  0.85877441  0.22864208  0.47974157    -0.43640
N1884       N  0.51534161  0.33581720  0.58436763    -0.43630
C1885       C  0.94030726  0.25872644  0.82341990    -0.00050
C1886       C  0.96367427  0.28441192  0.80831464    -0.11920
C1887       C  0.97667703  0.30717484  0.84199447     0.02190
C1888       C  0.96541783  0.30469611  0.89058961    -0.00130
C1889       C  0.94201586  0.27934646  0.90529284    -0.11860
C1890       C  0.92959035  0.25659688  0.87249407     0.02070
H1891       H  0.97150186  0.28674701  0.77012490     0.15050
H1892       H  0.93390086  0.27712494  0.94330864     0.15050
C1893       C  0.90566601  0.23134351  0.89069577     0.36710
C1894       C  0.50180736  0.33261316  0.82666240     0.36610
N1895       N  0.88701707  0.21117828  0.90715556    -0.43640
N1896       N  0.52206360  0.35305445  0.81479610    -0.43630
C1897       C  0.92395913  0.14119381  0.98893581    -0.00050
C1898       C  0.93570827  0.16659115  0.96354043    -0.11920
C1899       C  0.91981833  0.17241766  0.92970507     0.02190
C1900       C  0.89014094  0.15350281  0.92245430    -0.00130
C1901       C  0.87769620  0.12856561  0.95057703    -0.11860
C1902       C  0.89435165  0.12207645  0.98275197     0.02070
H1903       H  0.95841132  0.18117398  0.96644539     0.15050
H1904       H  0.85553058  0.11306208  0.94413912     0.15050
C1905       C  0.88074888  0.09535423  0.00757508     0.36710
C1906       C  0.93631215  0.19647440  0.89837725     0.36610
N1907       N  0.86985298  0.07383116  0.02721511    -0.43640
N1908       N  0.95141833  0.21553225  0.87406120    -0.43630
C1909       C  0.82131219  0.26167803  0.63256512    -0.00050
C1910       C  0.84604179  0.27708173  0.60387157    -0.11920
C1911       C  0.85086521  0.30002543  0.57512740     0.02190
C1912       C  0.83121625  0.30913612  0.57598948    -0.00130
C1913       C  0.80609973  0.29347835  0.60418428    -0.11860
C1914       C  0.80096761  0.26978771  0.63211419     0.02070
H1915       H  0.86156359  0.27062901  0.60285396     0.15050
H1916       H  0.79064410  0.29998381  0.60495410     0.15050
C1917       C  0.77548694  0.25492904  0.66151910     0.36710
C1918       C  0.87549833  0.31273758  0.54303880     0.36610
N1919       N  0.75508369  0.24298804  0.68524084    -0.43640
N1920       N  0.89522290  0.32279631  0.51735576    -0.43630
C1921       C  0.77983313  0.16448168  0.50644646    -0.00050
C1922       C  0.76081360  0.13742665  0.48838938    -0.11920
C1923       C  0.73596165  0.13137859  0.46192597     0.02190
C1924       C  0.72961964  0.15266363  0.45390359    -0.00130
C1925       C  0.75028972  0.18017568  0.46752664    -0.11860
C1926       C  0.77516934  0.18616005  0.49301670     0.02070
H1927       H  0.76402758  0.12049940  0.49893361     0.15050
H1928       H  0.74623226  0.19699563  0.46168458     0.15050
C1929       C  0.79450501  0.21456724  0.50855815     0.36710
C1930       C  0.71701306  0.10303685  0.44515600     0.36610
N1931       N  0.80983294  0.23760230  0.51982168    -0.43640
N1932       N  0.70186034  0.08027062  0.43191724    -0.43630
C1933       C  0.85276688  0.06831264  0.78835969    -0.00050
C1934       C  0.83100060  0.04097294  0.77475716    -0.11920
C1935       C  0.82556730  0.01763171  0.80313404     0.02190
C1936       C  0.84206184  0.02103099  0.84633041    -0.00130
C1937       C  0.86477399  0.04796344  0.85868515    -0.11860
C1938       C  0.87042034  0.07142011  0.83005947     0.02070
H1939       H  0.81752953  0.03770397  0.74216809     0.15050
H1940       H  0.87826853  0.05066249  0.89096333     0.15050
C1941       C  0.89440228  0.09814138  0.84466017     0.36710
C1942       C  0.80342910  0.99032973  0.78631216     0.36610
N1943       N  0.91398811  0.11936760  0.85622862    -0.43640
N1944       N  0.78574766  0.46846159  0.77268186    -0.43630
C1945       C  0.69996762  0.03820253  0.91040746    -0.00050
C1946       C  0.72663594  0.05414625  0.93360169    -0.11920
C1947       C  0.75077028  0.06994507  0.90490266     0.02190
C1948       C  0.74829244  0.07012882  0.85184043    -0.00130
C1949       C  0.72171256  0.05335673  0.82842512    -0.11860
C1950       C  0.69749634  0.03737068  0.85740476     0.02070
H1951       H  0.72855575  0.05410426  0.97442040     0.15050
H1952       H  0.71966325  0.05365775  0.78768489     0.15050
C1953       C  0.67054994  0.02003098  0.83213227     0.36710
C1954       C  0.77776084  0.08578565  0.93093718     0.36610
N1955       N  0.64895457  0.00609172  0.81190114    -0.43640
N1956       N  0.79928783  0.09849662  0.95201182    -0.43630
C1957       C  0.68729008  0.02678458  0.55366597    -0.00050
C1958       C  0.67701150  0.03587950  0.59355481    -0.11920
C1959       C  0.69525233  0.05978610  0.62218744     0.02190
C1960       C  0.72435088  0.07476592  0.61162158    -0.00130
C1961       C  0.73447062  0.06644442  0.57075181    -0.11860
C1962       C  0.71633893  0.04292881  0.54160467     0.02070
H1963       H  0.65468825  0.02396673  0.60302601     0.15050
H1964       H  0.75699213  0.07805067  0.56245951     0.15050
C1965       C  0.72817443  0.03626372  0.49926206     0.36710
C1966       C  0.68395276  0.06798914  0.66313660     0.36610
N1967       N  0.73786240  0.03103395  0.46550493    -0.43640
N1968       N  0.67494055  0.07474715  0.69579798    -0.43630
C1969       C  0.84689125  0.05136042  0.48738231    -0.00050
C1970       C  0.85290524  0.05180836  0.53916936    -0.11920
C1971       C  0.84735608  0.06739580  0.57339466     0.02190
C1972       C  0.83459018  0.08233941  0.55650963    -0.00130
C1973       C  0.82840164  0.08191616  0.50487458    -0.11860
C1974       C  0.83450399  0.06676118  0.47029803     0.02070
H1975       H  0.86241978  0.04020945  0.55304653     0.15050
H1976       H  0.81931369  0.09397601  0.49136863     0.15050
C1977       C  0.82907601  0.06857695  0.41740711     0.36710
C1978       C  0.85740035  0.06962528  0.62466869     0.36610
N1979       N  0.82460284  0.06999365  0.37506473    -0.43640
N1980       N  0.86617307  0.07153802  0.66525085    -0.43630
O1981       O  0.84196481  0.62662101  0.57637977    -0.86380
O1982       O  0.78547724  0.61571257  0.84164042    -0.86550
O1983       O  0.82868051  0.58550543  0.74222735    -0.88220
O1984       O  0.76219874  0.58747076  0.66574480    -0.86970
O1985       O  0.74942986  0.62013429  0.65118167    -0.86560
O1986       O  0.87388104  0.61777658  0.76789013    -0.87930
O1987       O  0.77536993  0.58459754  0.77689358    -0.86410
O1988       O  0.81839929  0.59124809  0.63346034    -0.86000
Zr1989     Zr  0.80745639  0.61009155  0.70792113     2.84310
O1990       O  0.79001983  0.63629713  0.74416076    -1.07970
O1991       O  0.85366479  0.63969594  0.68066410    -1.08700
C1992       C  0.83097808  0.60112034  0.59083625     1.06730
C1993       C  0.77162496  0.59127002  0.82160134     1.06670
C1994       C  0.85243674  0.59227541  0.76372521     1.09650
C1995       C  0.74594560  0.59539150  0.64664149     1.07430
H1996       H  0.83477623  0.62253795  0.80298746     0.32990
O1997       O  0.83579647  0.63510983  0.77704525    -1.28920
H1998       H  0.79631913  0.62932427  0.61797301     0.32660
O1999       O  0.80693782  0.63987663  0.64726480    -1.30600
O2000       O  0.83434427  0.70400847  0.85858012    -0.86380
O2001       O  0.88325809  0.71495543  0.58377431    -0.87870
O2002       O  0.88953697  0.65924951  0.83592218    -0.86450
O2003       O  0.75663630  0.66384328  0.74821365    -0.86500
O2004       O  0.78263131  0.66744266  0.59323081    -0.86210
O2005       O  0.91600028  0.67054742  0.68815510    -0.86020
O2006       O  0.91124871  0.74634275  0.75307562    -0.86390
O2007       O  0.84249571  0.74576963  0.68831080    -0.85850
O2008       O  0.91581890  0.71176672  0.78954287    -0.86920
O2009       O  0.79811744  0.71320761  0.65872494    -0.86070
O2010       O  0.85128688  0.65561547  0.87737629    -0.86470
O2011       O  0.89726690  0.67073398  0.61052638    -0.86190
O2012       O  0.81950313  0.66757726  0.55254478    -0.85850
O2013       O  0.77494801  0.66149781  0.82519201    -0.86250
O2014       O  0.85895692  0.73954795  0.80222234    -0.86550
O2015       O  0.89338661  0.74677769  0.64710202    -0.87890
Zr2016     Zr  0.81945849  0.66162281  0.81321496     2.83100
Zr2017     Zr  0.85265651  0.66931440  0.61900261     2.83500
Zr2018     Zr  0.88207514  0.66532221  0.74984807     2.84090
Zr2019     Zr  0.78882769  0.66598590  0.68272513     2.83360
Zr2020     Zr  0.86407528  0.72121557  0.72112211     2.84220
O2021       O  0.83496764  0.69561088  0.65351779    -1.08460
O2022       O  0.86492750  0.69203618  0.78382640    -1.07960
C2023       C  0.84780702  0.72984821  0.84603110     1.06700
C2024       C  0.89623003  0.73997575  0.60159346     1.09320
C2025       C  0.87546153  0.65604707  0.87611942     1.06870
C2026       C  0.75608059  0.66261992  0.79710418     1.07230
C2027       C  0.79561059  0.66707938  0.55339675     1.06820
C2028       C  0.91660243  0.67147861  0.63960331     1.06370
C2029       C  0.92241301  0.73763643  0.78501408     1.06790
C2030       C  0.81964424  0.73860188  0.66321739     1.06310
H2031       H  0.90147062  0.70776018  0.67668372     0.32980
O2032       O  0.88222014  0.69520865  0.68734628    -1.29560
H2033       H  0.81104881  0.70273146  0.76517920     0.33010
O2034       O  0.81816370  0.69161203  0.75116817    -1.30940
C2035       C  0.97917182  0.98104226  0.49215981     0.02390
C2036       C  0.00211655  0.97688220  0.48855538     0.02390
C2037       C  0.53065981  0.49962452  0.48761050     0.02390
C2038       C  0.53674622  0.52795709  0.49282430     0.02390
C2039       C  0.51198189  0.53102873  0.48944373     0.02390
C2040       C  0.98371410  0.50782729  0.48694572     0.02390
C2041       C  0.50781225  0.66798299  0.54555679     0.03240
C2042       C  0.50619424  0.64233643  0.54261720    -0.12910
C2043       C  0.52490605  0.63910098  0.51186657     0.00740
C2044       C  0.54456673  0.66175328  0.48238240    -0.11440
C2045       C  0.54497898  0.68703961  0.48348854     0.03230
C2046       C  0.52742679  0.69025974  0.51678601    -0.10860
H2047       H  0.48926006  0.62454886  0.56204596     0.08820
H2048       H  0.55865972  0.65943335  0.45728128     0.06350
H2049       H  0.52730196  0.70958573  0.51739754     0.06200
C2050       C  0.65177320  0.95666514  0.48236731     0.03240
C2051       C  0.67186292  0.48004934  0.51089144    -0.12910
C2052       C  0.66681190  0.50162525  0.52365556     0.00740
C2053       C  0.64148669  0.49943518  0.50793402    -0.11440
C2054       C  0.62056950  0.47593628  0.48216890     0.03230
C2055       C  0.62569048  0.95448338  0.46880461    -0.10860
H2056       H  0.69169018  0.48169566  0.52183529     0.08820
H2057       H  0.63751789  0.51601012  0.51710529     0.06350
H2058       H  0.60988312  0.93664303  0.44729198     0.06200
C2059       C  0.85382263  0.53467170  0.45273685     0.03240
C2060       C  0.87956992  0.53517495  0.45830285    -0.12910
C2061       C  0.88528580  0.51738673  0.42987893     0.00740
C2062       C  0.86515541  0.50008987  0.39276189    -0.11440
C2063       C  0.83918588  0.49944506  0.38622458     0.03230
C2064       C  0.83375746  0.51646250  0.41719326    -0.10860
H2065       H  0.89508214  0.54915513  0.48586912     0.08820
H2066       H  0.86922215  0.98644372  0.37021861     0.06350
H2067       H  0.81319014  0.51463294  0.41499200     0.06200
C2068       C  0.51462954  0.84939253  0.40493261     0.03240
C2069       C  0.99741165  0.82541062  0.43467282    -0.12910
C2070       C  0.97620907  0.82439625  0.46576199     0.00740
C2071       C  0.97245571  0.84715299  0.46733850    -0.11440
C2072       C  0.99023706  0.87142256  0.44050248     0.03230
C2073       C  0.51106343  0.87238864  0.40914617    -0.10860
H2074       H  0.00050252  0.80780620  0.43386358     0.08820
H2075       H  0.95626869  0.84638577  0.49154593     0.06350
H2076       H  0.52488808  0.89133425  0.38859932     0.06200
C2077       C  0.70119765  0.64700045  0.43584334     0.03680
C2078       C  0.67587560  0.62475988  0.45598007    -0.12910
C2079       C  0.64927662  0.62130652  0.44343574     0.00740
C2080       C  0.64841978  0.64074836  0.41093935    -0.11440
C2081       C  0.67334008  0.66409258  0.39356453     0.03230
C2082       C  0.69948452  0.66643420  0.40441205    -0.10860
H2083       H  0.67700380  0.61113810  0.48368903     0.08820
H2084       H  0.62820852  0.63857325  0.40139157     0.06350
H2085       H  0.71866315  0.68414653  0.38976775     0.06200
C2086       C  0.83628528  0.83422081  0.54663472     0.03240
C2087       C  0.86317313  0.85923310  0.54746354    -0.12910
C2088       C  0.86875196  0.88150159  0.51525049     0.00740
C2089       C  0.84683826  0.87968672  0.48563544    -0.11440
C2090       C  0.82043187  0.85524275  0.48361388     0.03230
C2091       C  0.81491322  0.83254231  0.51440573    -0.10860
H2092       H  0.88003467  0.86100062  0.57158457     0.08820
H2093       H  0.85072938  0.89714297  0.46199696     0.06350
H2094       H  0.79453826  0.81329974  0.51155424     0.06200
O2095       O  0.62666203  0.79224082  0.35759686    -0.86380
O2096       O  0.61469786  0.82741795  0.08806922    -0.86550
O2097       O  0.59140772  0.82773556  0.25705574    -0.88220
O2098       O  0.58396318  0.75626234  0.18718707    -0.86970
O2099       O  0.61513315  0.74200247  0.16761651    -0.86560
O2100       O  0.62569010  0.87382787  0.26535311    -0.87930
O2101       O  0.58352536  0.80512963  0.15296261    -0.86410
O2102       O  0.59062962  0.77638351  0.29888109    -0.86000
Zr2103     Zr  0.61122910  0.80257434  0.22142647     2.84310
O2104       O  0.63470549  0.79616009  0.15486236    -1.07970
O2105       O  0.64241664  0.83655950  0.27830454    -1.08700
C2106       C  0.60075235  0.77635001  0.34307123     1.06730
C2107       C  0.59009069  0.81661975  0.10922974     1.06670
C2108       C  0.59991254  0.85278554  0.27123674     1.09650
C2109       C  0.58999217  0.73885435  0.16826353     1.07430
H2110       H  0.62748684  0.85278408  0.16916828     0.32990
O2111       O  0.63895689  0.84537007  0.18055293    -1.28920
H2112       H  0.62822697  0.76876123  0.26988640     0.32660
O2113       O  0.63970185  0.78684231  0.25459487    -1.30600
O2114       O  0.70613996  0.86766705  0.06824273    -0.86380
O2115       O  0.71671569  0.83809460  0.34864013    -0.87870
O2116       O  0.67260405  0.90704377  0.16541941    -0.86450
O2117       O  0.65895944  0.76859439  0.09919622    -0.86500
O2118       O  0.66534854  0.75400562  0.25711529    -0.86210
O2119       O  0.67424851  0.89222033  0.32123516    -0.86020
O2120       O  0.75173611  0.90429280  0.23232601    -0.86390
O2121       O  0.74475483  0.83010579  0.18191984    -0.85850
O2122       O  0.72080528  0.91786107  0.25750480    -0.86920
O2123       O  0.70970017  0.78463498  0.16787231    -0.86070
O2124       O  0.66668294  0.88209042  0.09327184    -0.86470
O2125       O  0.67230272  0.85851981  0.37286827    -0.86190
O2126       O  0.67141004  0.77780510  0.33163172    -0.85850
O2127       O  0.65539810  0.80152697  0.05312450    -0.86250
O2128       O  0.74224043  0.88031410  0.12543052    -0.86550
O2129       O  0.74888843  0.85715325  0.28468358    -0.87890
Zr2130     Zr  0.66245612  0.83832845  0.11384861     2.83100
Zr2131     Zr  0.67036534  0.82094853  0.31399830     2.83500
Zr2132     Zr  0.67141109  0.87894673  0.23650776     2.84090
Zr2133     Zr  0.66403644  0.78119715  0.18762776     2.83360
Zr2134     Zr  0.72352445  0.85637459  0.20656159     2.84220
O2135       O  0.69474809  0.81424529  0.24765334    -1.08460
O2136       O  0.69523277  0.87192757  0.17120346    -1.07960
C2137       C  0.73258883  0.88182111  0.08139201     1.06700
C2138       C  0.74205771  0.84989314  0.33137418     1.09320
C2139       C  0.67024801  0.90371393  0.11694162     1.06870
C2140       C  0.65545024  0.77843246  0.05758468     1.07230
C2141       C  0.66873845  0.75686401  0.30544288     1.06820
C2142       C  0.67402536  0.88259652  0.36504976     1.06370
C2143       C  0.74601412  0.92113733  0.25478881     1.06790
C2144       C  0.73604240  0.80485263  0.16842308     1.06310
H2145       H  0.71179873  0.87510639  0.29732223     0.32980
O2146       O  0.69899029  0.86251527  0.27183213    -1.29560
H2147       H  0.70276902  0.82186751  0.11941428     0.33010
O2148       O  0.69237227  0.82376760  0.14674078    -1.30940
C2149       C  0.94437964  0.63509289  0.01627856     0.03240
C2150       C  0.96635420  0.65595509  0.04720755    -0.12910
C2151       C  0.98902192  0.65310180  0.06493853     0.00740
C2152       C  0.98932671  0.62910653  0.05247692    -0.11440
C2153       C  0.96796422  0.60799737  0.02252432     0.03230
C2154       C  0.94544100  0.61098511  0.00442121    -0.10860
H2155       H  0.96637806  0.67488467  0.05590188     0.08820
H2156       H  0.50724550  0.62736611  0.06461239     0.06350
H2157       H  0.92950066  0.59516210  0.97965534     0.06200
C2158       C  0.99192181  0.52053913  0.98298752     0.02390
C2159       C  0.96843733  0.99321810  0.98435152     0.02390
C2160       C  0.97200592  0.97042065  0.99160284     0.02390
C2161       C  0.49929898  0.97426541  0.98898859     0.02390
C2162       C  0.52316599  0.00161389  0.98294258     0.02390
C2163       C  0.51963811  0.52507775  0.98139106     0.02390
C2164       C  0.65596081  0.98299207  0.00348836     0.03240
C2165       C  0.67774600  0.00027955  0.97131308    -0.12910
C2166       C  0.67594742  0.52012690  0.94268755     0.00740
C2167       C  0.65226802  0.52309551  0.94683945    -0.11440
C2168       C  0.62980732  0.00536469  0.97894291     0.03230
C2169       C  0.63166648  0.98483081  0.00644133    -0.10860
H2170       H  0.69633004  0.99832455  0.96868273     0.08820
H2171       H  0.65155093  0.53925693  0.92550597     0.06350
H2172       H  0.61420673  0.96993898  0.02945519     0.06200
C2173       C  0.50966027  0.83626645  0.00657717     0.03240
C2174       C  0.99667104  0.81956834  0.96424562    -0.12910
C2175       C  0.98086091  0.82539467  0.93071980     0.00740
C2176       C  0.97886686  0.84918975  0.93785031    -0.11440
C2177       C  0.99309516  0.86738536  0.97898923     0.03230
C2178       C  0.50795881  0.86031699  0.01358472    -0.10860
H2179       H  0.99918367  0.80196172  0.95634085     0.08820
H2180       H  0.96654786  0.85356362  0.91135834     0.06350
H2181       H  0.51927742  0.87421543  0.04480011     0.06200
C2182       C  0.64102532  0.68659197  0.93930219     0.03240
C2183       C  0.66209169  0.68713930  0.90803054    -0.12910
C2184       C  0.66070733  0.66235373  0.89276623     0.00740
C2185       C  0.63707895  0.63656183  0.90584543    -0.11440
C2186       C  0.61584164  0.63527967  0.93654140     0.03230
C2187       C  0.61853996  0.66012852  0.95485171    -0.10860
H2188       H  0.67990904  0.70673765  0.89551632     0.08820
H2189       H  0.63563247  0.61740127  0.89343889     0.06350
H2190       H  0.60308599  0.65845109  0.98172404     0.06200
C2191       C  0.83863450  0.99666012  0.87518185     0.03240
C2192       C  0.81354654  0.97800862  0.90168753    -0.12910
C2193       C  0.81265599  0.95649668  0.93135468     0.00740
C2194       C  0.83629991  0.95339482  0.93232222    -0.11440
C2195       C  0.86149427  0.97287407  0.90933199     0.03230
C2196       C  0.86235404  0.99379266  0.87952339    -0.10860
H2197       H  0.79573224  0.98120157  0.90154183     0.08820
H2198       H  0.83620972  0.93754899  0.95613672     0.06350
H2199       H  0.88222859  0.50916941  0.86250002     0.06200
C2200       C  0.85278558  0.80953166  0.98859398     0.03240
C2201       C  0.83155996  0.80195369  0.02414615    -0.12910
C2202       C  0.83079308  0.82228647  0.05370920     0.00740
C2203       C  0.85219043  0.85068100  0.04690819    -0.11440
C2204       C  0.87454583  0.85826521  0.01251385     0.03230
C2205       C  0.87484198  0.83717685  0.98473041    -0.10860
H2206       H  0.81523836  0.78015007  0.02767805     0.08820
H2207       H  0.85121226  0.86687071  0.06746966     0.06350
H2208       H  0.89211840  0.84209686  0.95933686     0.06200
C2209       C  0.94071822  0.98791823  0.96643927    -0.00050
C2210       C  0.93516998  0.98389367  0.91433673    -0.11920
C2211       C  0.90898876  0.97776908  0.89462554     0.02190
C2212       C  0.88819950  0.97592779  0.92756203    -0.00130
C2213       C  0.89380363  0.97979362  0.97971447    -0.11860
C2214       C  0.91982535  0.98563568  0.99941787     0.02070
H2215       H  0.95132743  0.98530625  0.88920619     0.15050
H2216       H  0.87797351  0.97890994  0.00505321     0.15050
C2217       C  0.92448792  0.48950897  0.05318598     0.36710
C2218       C  0.90376472  0.97298466  0.84100708     0.36610
N2219       N  0.92760037  0.49256751  0.09645245    -0.43640
N2220       N  0.89960290  0.96909612  0.79803852    -0.43630
C2221       C  0.59062179  0.60769518  0.94900663    -0.00050
C2222       C  0.58817744  0.59626955  0.99725426    -0.11920
C2223       C  0.56522963  0.56958477  0.00901575     0.02190
C2224       C  0.54418257  0.55392709  0.97212060    -0.00130
C2225       C  0.54623322  0.56587396  0.92451376    -0.11860
C2226       C  0.56924679  0.59231563  0.91260679     0.02070
H2227       H  0.60441654  0.60808952  0.02555324     0.15050
H2228       H  0.52996390  0.55420970  0.89616790     0.15050
C2229       C  0.57045529  0.60334832  0.86278771     0.36710
C2230       C  0.56357176  0.55900585  0.05931369     0.36610
N2231       N  0.57143827  0.61221453  0.82287335    -0.43640
N2232       N  0.56249010  0.55074344  0.09979971    -0.43630
C2233       C  0.55175027  0.00538955  0.98148401    -0.00050
C2234       C  0.56311237  0.00206681  0.02650609    -0.11920
C2235       C  0.58930477  0.00377712  0.02728679     0.02190
C2236       C  0.60383099  0.00715238  0.98150482    -0.00130
C2237       C  0.59258228  0.01114291  0.93654431    -0.11860
C2238       C  0.56706521  0.01089239  0.93639797     0.02070
H2239       H  0.55144332  0.99828172  0.06131636     0.15050
H2240       H  0.60336297  0.51382391  0.90107251     0.15050
C2241       C  0.55696742  0.51585579  0.88939849     0.36710
C2242       C  0.60088401  0.00284917  0.07588224     0.36610
N2243       N  0.54933300  0.52016177  0.85147643    -0.43640
N2244       N  0.60979841  0.00205879  0.11517867    -0.43630
C2245       C  0.50169648  0.94886404  0.98696411    -0.00050
C2246       C  0.99769021  0.93358996  0.03130808    -0.11920
C2247       C  0.99337588  0.90658361  0.02965477     0.02190
C2248       C  0.99499938  0.89501919  0.98304687    -0.00130
C2249       C  0.49967954  0.91075866  0.93893243    -0.11860
C2250       C  0.50210341  0.93691689  0.94035252     0.02070
H2251       H  0.99616452  0.94214552  0.06702208     0.15050
H2252       H  0.50091431  0.90238534  0.90279169     0.15050
C2253       C  0.50244431  0.94982144  0.89300621     0.36710
C2254       C  0.98503730  0.89055820  0.07569369     0.36610
N2255       N  0.50200153  0.95943243  0.85457009    -0.43640
N2256       N  0.97818236  0.87778267  0.11266785    -0.43630
C2257       C  0.94658192  0.94205164  0.99783043    -0.00050
C2258       C  0.93358871  0.92607981  0.95472966    -0.11920
C2259       C  0.90961888  0.89940233  0.95820402     0.02190
C2260       C  0.89818831  0.88782440  0.00621443    -0.00130
C2261       C  0.91116425  0.90428764  0.04950040    -0.11860
C2262       C  0.93516096  0.93118105  0.04562155     0.02070
H2263       H  0.94230834  0.93462881  0.91798062     0.15050
H2264       H  0.90312703  0.89582117  0.08658008     0.15050
C2265       C  0.94825254  0.94694292  0.09116277     0.36710
C2266       C  0.89764194  0.88506705  0.91109528     0.36610
N2267       N  0.95883986  0.95954706  0.12768076    -0.43640
N2268       N  0.88943550  0.87462294  0.87202154    -0.43630
C2269       C  0.98685617  0.54383792  0.99165029    -0.00050
C2270       C  0.47965616  0.55542018  0.95134290    -0.11920
C2271       C  0.47208889  0.57552145  0.96019563     0.02190
C2272       C  0.97099273  0.58369294  0.01025578    -0.00130
C2273       C  0.97738646  0.57125136  0.05029532    -0.11860
C2274       C  0.98569963  0.55194763  0.04139972     0.02070
H2275       H  0.48002245  0.54878276  0.91305875     0.15050
H2276       H  0.97667026  0.57731307  0.08889730     0.15050
C2277       C  0.99256333  0.54035081  0.08413097     0.36710
C2278       C  0.46683229  0.58824503  0.91737230     0.36610
N2279       N  0.99787036  0.03092184  0.11837039    -0.43640
N2280       N  0.46264160  0.59844367  0.88298039    -0.43630
C2281       C  0.64382586  0.71341056  0.95895524    -0.00050
C2282       C  0.67111091  0.73723208  0.96684519    -0.11920
C2283       C  0.67483280  0.76109603  0.99167208     0.02190
C2284       C  0.65142152  0.76099856  0.01263879    -0.00130
C2285       C  0.62411598  0.73876478  0.00093452    -0.11860
C2286       C  0.62009106  0.71570623  0.97255798     0.02070
H2287       H  0.68995686  0.73708128  0.95615449     0.15050
H2288       H  0.60585986  0.73883856  0.01586670     0.15050
C2289       C  0.59136609  0.69516972  0.95775797     0.36710
C2290       C  0.70306900  0.78517269  0.99742701     0.36610
N2291       N  0.56827446  0.67884910  0.94600991    -0.43640
N2292       N  0.72560109  0.80463587  0.00172711    -0.43630
C2293       C  0.75883509  0.80080148  0.14848784    -0.00050
C2294       C  0.78661402  0.81872313  0.16671865    -0.11920
C2295       C  0.81033003  0.82496888  0.13786563     0.02190
C2296       C  0.80653033  0.81354370  0.08892487    -0.00130
C2297       C  0.77880134  0.79279659  0.07359633    -0.11860
C2298       C  0.75520319  0.78568241  0.10382745     0.02070
H2299       H  0.78971611  0.82915560  0.20261060     0.15050
H2300       H  0.77526214  0.78264469  0.03718868     0.15050
C2301       C  0.72766000  0.76305251  0.08816841     0.36710
C2302       C  0.83816158  0.84315032  0.15955018     0.36610
N2303       N  0.70566182  0.74438817  0.07654354    -0.43640
N2304       N  0.86042410  0.85768284  0.17710884    -0.43630
C2305       C  0.52810889  0.83034078  0.03888328    -0.00050
C2306       C  0.55433343  0.85280316  0.05487529    -0.11920
C2307       C  0.57373622  0.84828107  0.08037036     0.02190
C2308       C  0.56881076  0.82104346  0.08468793    -0.00130
C2309       C  0.54202314  0.79833842  0.07203976    -0.11860
C2310       C  0.52122228  0.80279884  0.05102458     0.02070
H2311       H  0.55979974  0.87411835  0.04823957     0.15050
H2312       H  0.53717297  0.77727742  0.07976291     0.15050
C2313       C  0.49279897  0.77903911  0.04490764     0.36710
C2314       C  0.59569441  0.87133131  0.10893305     0.36610
N2315       N  0.46999754  0.76000993  0.04045261    -0.43640
N2316       N  0.61147269  0.88985522  0.13412969    -0.43630
C2317       C  0.51428657  0.67566379  0.09267703    -0.00050
C2318       C  0.52320770  0.66927727  0.13828090    -0.11920
C2319       C  0.54873416  0.68891922  0.16253416     0.02190
C2320       C  0.56604327  0.71535059  0.14084074    -0.00130
C2321       C  0.55727080  0.72167730  0.09532606    -0.11860
C2322       C  0.53188045  0.70217744  0.07105475     0.02070
H2323       H  0.51017629  0.64881653  0.15490473     0.15050
H2324       H  0.57020805  0.74226166  0.07901542     0.15050
C2325       C  0.52495546  0.70959953  0.02309640     0.36710
C2326       C  0.55648403  0.68184894  0.21001494     0.36610
N2327       N  0.51948987  0.71558468  0.98461107    -0.43640
N2328       N  0.56281889  0.67627162  0.24806047    -0.43630
C2329       C  0.79028260  0.94002116  0.96929389    -0.00050
C2330       C  0.79918713  0.94148439  0.01969712    -0.11920
C2331       C  0.78132374  0.92272317  0.05622622     0.02190
C2332       C  0.75305266  0.90193074  0.04330109    -0.00130
C2333       C  0.74374261  0.90136301  0.99301347    -0.11860
C2334       C  0.76206969  0.92002208  0.95619676     0.02070
H2335       H  0.82090695  0.95688239  0.03018522     0.15050
H2336       H  0.72220005  0.88593027  0.98190050     0.15050
C2337       C  0.75185849  0.91751818  0.90495421     0.36710
C2338       C  0.79321052  0.92547987  0.10625667     0.36610
N2339       N  0.74368721  0.91557631  0.86386015    -0.43640
N2340       N  0.80299109  0.92775758  0.14612581    -0.43630
C2341       C  0.66943392  0.92543139  0.08627026    -0.00050
C2342       C  0.66968328  0.94770780  0.11147478    -0.11920
C2343       C  0.66469146  0.96639145  0.08530278     0.02190
C2344       C  0.65909267  0.96277549  0.03317439    -0.00130
C2345       C  0.65999044  0.94153046  0.00734891    -0.11860
C2346       C  0.66541790  0.92304949  0.03297914     0.02070
H2347       H  0.67326895  0.95037370  0.15192928     0.15050
H2348       H  0.65676593  0.93965619  0.96670496     0.15050
C2349       C  0.66682495  0.90227308  0.00282092     0.36710
C2350       C  0.66652735  0.98968451  0.11230524     0.36610
N2351       N  0.66794296  0.88575423  0.97831059    -0.43640
N2352       N  0.66835488  0.50847617  0.13407193    -0.43630
C2353       C  0.80001296  0.85347100  0.44526935    -0.00050
C2354       C  0.80816642  0.85737711  0.39441107    -0.11920
C2355       C  0.79081101  0.85839982  0.35663938     0.02190
C2356       C  0.76407344  0.85433312  0.36943548    -0.00130
C2357       C  0.75679550  0.85192734  0.42104615    -0.11860
C2358       C  0.77446468  0.85150251  0.45871681     0.02070
H2359       H  0.82847886  0.86006855  0.38431931     0.15050
H2360       H  0.73694703  0.84997085  0.43231961     0.15050
C2361       C  0.76639984  0.84995251  0.51089656     0.36710
C2362       C  0.80160745  0.86454721  0.30591718     0.36610
N2363       N  0.76002911  0.84887556  0.55272206    -0.43640
N2364       N  0.81089212  0.87025486  0.26571322    -0.43630
C2365       C  0.66918110  0.73350874  0.33138884    -0.00050
C2366       C  0.65176889  0.70640040  0.31166283    -0.11920
C2367       C  0.65323336  0.68373803  0.33016612     0.02190
C2368       C  0.67221486  0.68772976  0.36999306    -0.00130
C2369       C  0.68948441  0.71477386  0.39010027    -0.11860
C2370       C  0.68822970  0.73756078  0.37110954     0.02070
H2371       H  0.63717180  0.70292708  0.28080539     0.15050
H2372       H  0.70399834  0.71812135  0.42101225     0.15050
C2373       C  0.70773181  0.76491885  0.39140178     0.36710
C2374       C  0.63579245  0.65688441  0.30612119     0.36610
N2375       N  0.72358167  0.78674821  0.40788909    -0.43640
N2376       N  0.62173054  0.63538342  0.28684929    -0.43630
C2377       C  0.53623766  0.85099246  0.36885781    -0.00050
C2378       C  0.56337289  0.87548316  0.36625163    -0.11920
C2379       C  0.58385043  0.87800907  0.33155488     0.02190
C2380       C  0.57781009  0.85539051  0.29954254    -0.00130
C2381       C  0.54991408  0.83184000  0.29998765    -0.11860
C2382       C  0.52943829  0.82948376  0.33377319     0.02070
H2383       H  0.56872573  0.89275198  0.39161674     0.15050
H2384       H  0.54394944  0.81450676  0.27440376     0.15050
C2385       C  0.50137087  0.80491172  0.33048371     0.36710
C2386       C  0.61033742  0.90422598  0.32865697     0.36610
N2387       N  0.47892738  0.78518255  0.32783352    -0.43640
N2388       N  0.63127267  0.92548843  0.32516600    -0.43630
C2389       C  0.81638503  0.97983621  0.34994244    -0.00050
C2390       C  0.80141295  0.98932249  0.32039680    -0.11920
C2391       C  0.77819006  0.97096400  0.28923294     0.02190
C2392       C  0.76997884  0.94266874  0.28619286    -0.00130
C2393       C  0.78503005  0.93336519  0.31539503    -0.11860
C2394       C  0.80751686  0.95126011  0.34736491     0.02070
H2395       H  0.80772209  0.01114661  0.32200604     0.15050
H2396       H  0.77854398  0.91148780  0.31454630     0.15050
C2397       C  0.81963445  0.93907642  0.37945763     0.36710
C2398       C  0.76356846  0.98163163  0.26013979     0.36610
N2399       N  0.82923683  0.92920446  0.40512167    -0.43640
N2400       N  0.75178642  0.99012353  0.23674282    -0.43630
C2401       C  0.66071559  0.93817214  0.45818158    -0.00050
C2402       C  0.65448159  0.91228905  0.47886454    -0.11920
C2403       C  0.66202131  0.89466482  0.45324563     0.02190
C2404       C  0.67497538  0.90238332  0.40544462    -0.00130
C2405       C  0.68461250  0.93009195  0.38953868    -0.11860
C2406       C  0.67711176  0.94736716  0.41426342     0.02070
H2407       H  0.64386144  0.90589737  0.51489458     0.15050
H2408       H  0.69649715  0.93785676  0.35485438     0.15050
C2409       C  0.68490303  0.97389397  0.39159234     0.36710
C2410       C  0.65917918  0.87065996  0.47873457     0.36610
N2411       N  0.69079640  0.99497533  0.37324438    -0.43640
N2412       N  0.65840886  0.85231040  0.50037047    -0.43630
C2413       C  0.58275790  0.75419608  0.37835793    -0.00050
C2414       C  0.56798877  0.72664481  0.36034023    -0.11920
C2415       C  0.55641560  0.70422914  0.39387122     0.02190
C2416       C  0.56052851  0.70939946  0.44639427    -0.00130
C2417       C  0.57513866  0.73705524  0.46408693    -0.11860
C2418       C  0.58531693  0.75927521  0.43064315     0.02070
H2419       H  0.56615294  0.72260896  0.32000672     0.15050
H2420       H  0.57741859  0.74126285  0.50437711     0.15050
C2421       C  0.59640121  0.78696539  0.45067863     0.36710
C2422       C  0.53943717  0.67638037  0.37336262     0.36610
N2423       N  0.60428792  0.80899907  0.46676240    -0.43640
N2424       N  0.52572557  0.65411212  0.35676857    -0.43630
C2425       C  0.95006773  0.95661733  0.49869936    -0.00050
C2426       C  0.93518094  0.94108063  0.45608521    -0.11920
C2427       C  0.90947785  0.91591905  0.46099412     0.02190
C2428       C  0.89754330  0.90643748  0.50942989    -0.00130
C2429       C  0.91248411  0.92210250  0.55212232    -0.11860
C2430       C  0.93868582  0.94694136  0.54712606     0.02070
H2431       H  0.94427203  0.94817028  0.41898299     0.15050
H2432       H  0.90356110  0.91505758  0.58932638     0.15050
C2433       C  0.95381570  0.96171500  0.59229286     0.36710
C2434       C  0.89653664  0.89972211  0.41571426     0.36610
N2435       N  0.96595041  0.97327616  0.62874124    -0.43640
N2436       N  0.88643127  0.88691643  0.37918322    -0.43630
C2437       C  0.52145064  0.61118804  0.50642451    -0.00050
C2438       C  0.52174052  0.60125814  0.45773612    -0.11920
C2439       C  0.51829402  0.57493588  0.45089055     0.02190
C2440       C  0.51373263  0.55796696  0.49318289    -0.00130
C2441       C  0.51182899  0.56703004  0.54135319    -0.11860
C2442       C  0.51667388  0.59376439  0.54858994     0.02070
H2443       H  0.52483343  0.61409829  0.42497152     0.15050
H2444       H  0.00889411  0.55395670  0.57376339     0.15050
C2445       C  0.01898989  0.60323142  0.60001149     0.36710
C2446       C  0.52074284  0.56623536  0.40087242     0.36610
N2447       N  0.02095810  0.61019450  0.64168767    -0.43640
N2448       N  0.52283352  0.55930469  0.36080738    -0.43630
C2449       C  0.56793010  0.55352124  0.49617350    -0.00050
C2450       C  0.57485766  0.58165232  0.49817722    -0.11920
C2451       C  0.60126656  0.60390967  0.48354873     0.02190
C2452       C  0.62228934  0.59869408  0.46634559    -0.00130
C2453       C  0.61792253  0.57203353  0.47584064    -0.11860
C2454       C  0.59247491  0.55120978  0.49783072     0.02070
H2455       H  0.56158302  0.58774791  0.51542802     0.15050
H2456       H  0.63533245  0.56837905  0.47183839     0.15050
C2457       C  0.59674013  0.53796752  0.54091827     0.36710
C2458       C  0.60667638  0.63191806  0.49056290     0.36610
N2459       N  0.60108377  0.52868140  0.57654326    -0.43640
N2460       N  0.61084505  0.65424062  0.49634206    -0.43630
C2461       C  0.91098605  0.51539684  0.44310702    -0.00050
C2462       C  0.91762952  0.51473863  0.49445727    -0.11920
C2463       C  0.94137063  0.01323916  0.50963725     0.02190
C2464       C  0.95882903  0.51120539  0.47327008    -0.00130
C2465       C  0.95237366  0.51190204  0.42192011    -0.11860
C2466       C  0.92920717  0.51453372  0.40665767     0.02070
H2467       H  0.90417036  0.01548603  0.52329132     0.15050
H2468       H  0.96580069  0.51074653  0.39351527     0.15050
C2469       C  0.92564896  0.51783874  0.35356870     0.36710
C2470       C  0.94767185  0.01494195  0.56286224     0.36610
N2471       N  0.92294634  0.52068258  0.31100478    -0.43640
N2472       N  0.95236307  0.01702738  0.60581814    -0.43630
C2473       C  0.55277636  0.49166425  0.48210042    -0.00050
C2474       C  0.55660576  0.47744095  0.52218345    -0.11920
C2475       C  0.57584726  0.46828968  0.51930944     0.02190
C2476       C  0.59281289  0.47415401  0.47620994    -0.00130
C2477       C  0.58813402  0.48712519  0.43473349    -0.11860
C2478       C  0.56773738  0.49522466  0.43694337     0.02070
H2479       H  0.54578243  0.47511420  0.55731848     0.15050
H2480       H  0.60147849  0.49231523  0.40181071     0.15050
C2481       C  0.56329341  0.50816237  0.39354954     0.36710
C2482       C  0.57999411  0.45548665  0.56334157     0.36610
N2483       N  0.55961493  0.51853715  0.35885247    -0.43640
N2484       N  0.58342171  0.44534270  0.59866041    -0.43630
C2485       C  0.99578698  0.94830564  0.47720235    -0.00050
C2486       C  0.99417785  0.94069551  0.42631777    -0.11920
C2487       C  0.99067474  0.91497433  0.41301897     0.02190
C2488       C  0.98960780  0.89692215  0.45128845    -0.00130
C2489       C  0.98985435  0.90411741  0.50211592    -0.11860
C2490       C  0.99238427  0.92932731  0.51536546     0.02070
H2491       H  0.99600285  0.95509790  0.39704360     0.15050
H2492       H  0.98918933  0.89043771  0.53183691     0.15050
C2493       C  0.99347766  0.93572283  0.56835826     0.36710
C2494       C  0.98780199  0.90748986  0.36022247     0.36610
N2495       N  0.99496807  0.94035779  0.61120023    -0.43640
N2496       N  0.98541834  0.90151455  0.31788486    -0.43630
C2497       C  0.73183619  0.66272109  0.82252183    -0.00050
C2498       C  0.70623349  0.65330495  0.79541873    -0.11920
C2499       C  0.68300701  0.65330127  0.81717567     0.02190
C2500       C  0.68509250  0.66325810  0.86684140    -0.00130
C2501       C  0.71056182  0.67295676  0.89384332    -0.11860
C2502       C  0.73368077  0.67261482  0.87257757     0.02070
H2503       H  0.70416359  0.64561564  0.75711247     0.15050
H2504       H  0.71222635  0.68045682  0.93222273     0.15050
C2505       C  0.75902866  0.68303918  0.90317017     0.36710
C2506       C  0.65738432  0.64341260  0.78755131     0.36610
N2507       N  0.77915052  0.69131552  0.92823175    -0.43640
N2508       N  0.63685005  0.63552540  0.76379903    -0.43630
C2509       C  0.84947314  0.74983086  0.88414272    -0.00050
C2510       C  0.84865210  0.77307150  0.86671313    -0.11920
C2511       C  0.84800050  0.79172555  0.90052780     0.02190
C2512       C  0.85101144  0.78883537  0.95260334    -0.00130
C2513       C  0.85114032  0.76544443  0.97054595    -0.11860
C2514       C  0.84914582  0.74528609  0.93703510     0.02070
H2515       H  0.84661225  0.77569691  0.82660407     0.15050
H2516       H  0.85197215  0.76257704  0.01091997     0.15050
C2517       C  0.84526933  0.71989230  0.95881861     0.36710
C2518       C  0.84060221  0.81135933  0.88149966     0.36610
N2519       N  0.84150512  0.69950530  0.97730681    -0.43640
N2520       N  0.83348947  0.82620585  0.86620472    -0.43630
C2521       C  0.94123641  0.67284265  0.61571664    -0.00050
C2522       C  0.95746684  0.66471337  0.64424646    -0.11920
C2523       C  0.97998854  0.66393974  0.62275421     0.02190
C2524       C  0.98584804  0.67039957  0.57143061    -0.00130
C2525       C  0.97036574  0.67938299  0.54324930    -0.11860
C2526       C  0.94866184  0.68138216  0.56514563     0.02070
H2527       H  0.95257840  0.65879200  0.68350948     0.15050
H2528       H  0.97528387  0.68487535  0.50380622     0.15050
C2529       C  0.93530690  0.69312700  0.53509485     0.36710
C2530       C  0.99746088  0.65783504  0.65477111     0.36610
N2531       N  0.92486792  0.70275872  0.51097773    -0.43640
N2532       N  0.51148846  0.65346569  0.68143620    -0.43630
C2533       C  0.91653599  0.76196327  0.56675249    -0.00050
C2534       C  0.94424726  0.78115054  0.58359836    -0.11920
C2535       C  0.96477227  0.80027876  0.55008291     0.02190
C2536       C  0.95772141  0.80048915  0.49875757    -0.00130
C2537       C  0.93007914  0.78141765  0.48196587    -0.11860
C2538       C  0.90962104  0.76218926  0.51518551     0.02070
H2539       H  0.95000512  0.78090981  0.62278591     0.15050
H2540       H  0.92419242  0.78224363  0.44307944     0.15050
C2541       C  0.88135602  0.74358510  0.49564549     0.36710
C2542       C  0.99281335  0.81999547  0.56923250     0.36610
N2543       N  0.85877441  0.72864206  0.47974159    -0.43640
N2544       N  0.51534162  0.83581722  0.58436769    -0.43630
C2545       C  0.94030726  0.75872644  0.82341994    -0.00050
C2546       C  0.96367426  0.78441193  0.80831468    -0.11920
C2547       C  0.97667701  0.80717485  0.84199451     0.02190
C2548       C  0.96541782  0.80469610  0.89058967    -0.00130
C2549       C  0.94201586  0.77934645  0.90529290    -0.11860
C2550       C  0.92959035  0.75659687  0.87249412     0.02070
H2551       H  0.97150185  0.78674703  0.77012493     0.15050
H2552       H  0.93390086  0.77712492  0.94330870     0.15050
C2553       C  0.90566601  0.73134350  0.89069581     0.36710
C2554       C  0.50180744  0.83261314  0.82666240     0.36610
N2555       N  0.88701708  0.71117826  0.90715561    -0.43640
N2556       N  0.52206371  0.85305440  0.81479611    -0.43630
C2557       C  0.92395912  0.64119381  0.98893584    -0.00050
C2558       C  0.93570827  0.66659114  0.96354045    -0.11920
C2559       C  0.91981833  0.67241765  0.92970509     0.02190
C2560       C  0.89014093  0.65350280  0.92245433    -0.00130
C2561       C  0.87769619  0.62856561  0.95057707    -0.11860
C2562       C  0.89435163  0.62207645  0.98275201     0.02070
H2563       H  0.95841131  0.68117397  0.96644541     0.15050
H2564       H  0.85553057  0.61306209  0.94413917     0.15050
C2565       C  0.88074887  0.59535423  0.00757514     0.36710
C2566       C  0.93631214  0.69647438  0.89837726     0.36610
N2567       N  0.86985296  0.57383117  0.02721519    -0.43640
N2568       N  0.95141833  0.71553223  0.87406120    -0.43630
C2569       C  0.82131221  0.76167805  0.63256516    -0.00050
C2570       C  0.84604180  0.77708175  0.60387160    -0.11920
C2571       C  0.85086522  0.80002545  0.57512742     0.02190
C2572       C  0.83121627  0.80913613  0.57598951    -0.00130
C2573       C  0.80609974  0.79347836  0.60418433    -0.11860
C2574       C  0.80096763  0.76978773  0.63211424     0.02070
H2575       H  0.86156360  0.77062902  0.60285398     0.15050
H2576       H  0.79064411  0.79998383  0.60495416     0.15050
C2577       C  0.77548696  0.75492906  0.66151916     0.36710
C2578       C  0.87549833  0.81273760  0.54303881     0.36610
N2579       N  0.75508371  0.74298806  0.68524090    -0.43640
N2580       N  0.89522290  0.82279632  0.51735576    -0.43630
C2581       C  0.77983316  0.66448168  0.50644648    -0.00050
C2582       C  0.76081364  0.63742666  0.48838939    -0.11920
C2583       C  0.73596170  0.63137859  0.46192596     0.02190
C2584       C  0.72961968  0.65266362  0.45390355    -0.00130
C2585       C  0.75028974  0.68017567  0.46752661    -0.11860
C2586       C  0.77516936  0.68616005  0.49301670     0.02070
H2587       H  0.76402762  0.62049941  0.49893364     0.15050
H2588       H  0.74623228  0.69699561  0.46168454     0.15050
C2589       C  0.79450502  0.71456724  0.50855817     0.36710
C2590       C  0.71701311  0.60303685  0.44515599     0.36610
N2591       N  0.80983294  0.73760230  0.51982172    -0.43640
N2592       N  0.70186040  0.58027061  0.43191723    -0.43630
C2593       C  0.85276687  0.56831263  0.78835970    -0.00050
C2594       C  0.83100058  0.54097294  0.77475717    -0.11920
C2595       C  0.82556729  0.51763170  0.80313404     0.02190
C2596       C  0.84206183  0.52103098  0.84633041    -0.00130
C2597       C  0.86477398  0.54796343  0.85868516    -0.11860
C2598       C  0.87042032  0.57142010  0.83005949     0.02070
H2599       H  0.81752952  0.53770397  0.74216809     0.15050
H2600       H  0.87826851  0.55066247  0.89096334     0.15050
C2601       C  0.89440226  0.59814137  0.84466020     0.36710
C2602       C  0.80342909  0.49032973  0.78631215     0.36610
N2603       N  0.91398809  0.61936759  0.85622865    -0.43640
N2604       N  0.78574767  0.96846160  0.77268188    -0.43630
C2605       C  0.69996761  0.53820253  0.91040743    -0.00050
C2606       C  0.72663592  0.55414624  0.93360167    -0.11920
C2607       C  0.75077027  0.56994507  0.90490267     0.02190
C2608       C  0.74829244  0.57012882  0.85184043    -0.00130
C2609       C  0.72171256  0.55335673  0.82842510    -0.11860
C2610       C  0.69749634  0.53737068  0.85740473     0.02070
H2611       H  0.72855573  0.55410425  0.97442039     0.15050
H2612       H  0.71966326  0.55365775  0.78768488     0.15050
C2613       C  0.67054995  0.52003097  0.83213222     0.36710
C2614       C  0.77776082  0.58578565  0.93093719     0.36610
N2615       N  0.64895458  0.50609171  0.81190109    -0.43640
N2616       N  0.79928781  0.59849663  0.95201185    -0.43630
C2617       C  0.68729012  0.52678467  0.55366584    -0.00050
C2618       C  0.67701152  0.53587957  0.59355467    -0.11920
C2619       C  0.69525234  0.55978616  0.62218735     0.02190
C2620       C  0.72435090  0.57476596  0.61162156    -0.00130
C2621       C  0.73447065  0.56644447  0.57075180    -0.11860
C2622       C  0.71633898  0.54292888  0.54160461     0.02070
H2623       H  0.65468826  0.52396681  0.60302581     0.15050
H2624       H  0.75699217  0.57805071  0.56245955     0.15050
C2625       C  0.72817450  0.53626380  0.49926203     0.36710
C2626       C  0.68395275  0.56798920  0.66313649     0.36610
N2627       N  0.73786251  0.53103405  0.46550492    -0.43640
N2628       N  0.67494053  0.57474720  0.69579785    -0.43630
C2629       C  0.84689124  0.55136042  0.48738233    -0.00050
C2630       C  0.85290523  0.55180836  0.53916938    -0.11920
C2631       C  0.84735607  0.56739581  0.57339468     0.02190
C2632       C  0.83459018  0.58233941  0.55650965    -0.00130
C2633       C  0.82840163  0.58191616  0.50487460    -0.11860
C2634       C  0.83450397  0.56676119  0.47029805     0.02070
H2635       H  0.86241976  0.54020945  0.55304655     0.15050
H2636       H  0.81931368  0.59397602  0.49136865     0.15050
C2637       C  0.82907599  0.56857696  0.41740713     0.36710
C2638       C  0.85740034  0.56962527  0.62466871     0.36610
N2639       N  0.82460282  0.56999366  0.37506476    -0.43640
N2640       N  0.86617306  0.57153802  0.66525086    -0.43630
loop_ 
_geom_bond_atom_site_label_1 
_geom_bond_atom_site_label_2 
_geom_bond_distance 
_geom_bond_site_symmetry_2 
_ccdc_geom_bond_type 
O1          Zr37   2.422       .  S
O1           C12   1.289       .  A
O2          Zr36   2.393       .  S
O2           C13   1.285       .  A
O3           Zr9   2.391       .  S
O3           C14   1.285       .  A
O4           Zr9   2.397       .  S
O4           C15   1.285       .  A
O5          Zr39   2.492       .  S
O5           C15   1.301       .  A
O6          Zr38   2.504       .  S
O6           C14   1.304       .  A
O7           Zr9   2.438       .  S
O7           C13   1.292       .  A
O8           Zr9   2.459       .  S
O8           C12   1.295       .  A
Zr9          O10   2.337       .  S
Zr9          O11   2.326       .  S
Zr9          O19   2.324       .  S
Zr9          O17   2.333       .  S
O10         Zr36   2.357       .  S
O10         Zr39   2.349       .  S
O11         Zr37   2.346       .  S
O11         Zr38   2.344       .  S
C12         C652   1.480       .  S
C13         C628   1.462       .  S
C14         C613   1.499       .  S
C15         C640   1.473       .  S
H16          O17   0.964       .  S
O17         Zr36   2.306       .  S
O17         Zr38   2.334       .  S
H18          O19   0.963       .  S
O19         Zr37   2.314       .  S
O19         Zr39   2.352       .  S
O20         Zr36   2.392       .  S
O20          C43   1.284       .  A
O21         Zr37   2.411       .  S
O21          C44   1.287       .  A
O22         Zr38   2.368       .  S
O22          C45   1.280       .  A
O23         Zr39   2.449       .  S
O23          C46   1.297       .  A
O24         Zr39   2.399       .  S
O24          C47   1.286       .  A
O25         Zr38   2.394       .  S
O25          C48   1.287       .  A
O26         Zr40   2.371       .  S
O26          C49   1.276       .  A
O27         Zr40   2.390       .  S
O27          C50   1.283       .  A
O28         Zr38   2.509       .  S
O28          C49   1.303       .  A
O29         Zr39   2.501       .  S
O29          C50   1.302       .  A
O30         Zr36   2.572       .  S
O30          C45   1.318       .  A
O31         Zr37   2.426       .  S
O31          C48   1.290       .  A
O32         Zr37   2.488       .  S
O32          C47   1.300       .  A
O33         Zr36   2.468       .  S
O33          C46   1.299       .  A
O34         Zr40   2.462       .  S
O34          C43   1.298       .  A
O35         Zr40   2.483       .  S
O35          C44   1.299       .  A
Zr36         O42   2.323       .  S
Zr36         O54   2.374       .  S
Zr37         O41   2.333       .  S
Zr37         O52   2.354       .  S
Zr38         O42   2.325       .  S
Zr38         O52   2.349       .  S
Zr39         O41   2.341       .  S
Zr39         O54   2.347       .  S
Zr40         O41   2.325       .  S
Zr40         O42   2.345       .  S
Zr40         O54   2.339       .  S
Zr40         O52   2.330       .  S
C43         C529   1.474       .  S
C44         C553   1.487       .  S
C45         C580   1.509       .  S
C46         C517   1.502       .  S
C47         C601   1.473       .  S
C48         C541   1.467       .  S
C49         C565   1.477       .  S
C50         C589   1.487       .  S
H51          O52   0.965       .  S
H53          O54   0.966       .  S
C55         C445   1.486       .  S
C55          C56   1.401       .  A
C55         C720   1.393       .  A
C56         C505   1.480       .  S
C56        C2037   1.423       .  A
C57         C493   1.504       .  S
C57          C58   1.448   1_565  A
C57        C2036   1.423       .  A
C58         C469   1.569       .  S
C58          C59   1.460       .  A
C59         C460   1.463       .  S
C59        C1380   1.422   1_455  A
C60         C484   1.516       .  S
C60         C715   1.393   1_545  A
C60        C1379   1.422       .  A
C61        C1864   1.460   1_455  S
C61          C62   1.393       .  A
C61          C66   1.387       .  A
C62          C63   1.401       .  A
C62          H67   1.084   1_455  S
C63         C457   1.479       .  S
C63          C64   1.409       .  A
C64          C65   1.403       .  A
C64          H68   1.083       .  S
C65         C436   1.473       .  S
C65          C66   1.392       .  A
C66          H69   1.085       .  S
C70         C421   1.502       .  S
C70          C75   1.418       .  A
C70         C731   1.413       .  A
C71          C72   1.413   1_565  A
C71         C730   1.413       .  A
C71          H76   1.083       .  S
C72         C637   1.494       .  S
C72          C73   1.394   1_545  A
C73          C74   1.394       .  A
C73          H77   1.085   1_565  S
C74         C496   1.485       .  S
C74         C735   1.413       .  A
C75         C734   1.413       .  A
C75          H78   1.083       .  S
C79         C649   1.495       .  S
C79          C80   1.408       .  A
C79          C84   1.402       .  A
C80          C81   1.409       .  A
C80          H85   1.083       .  S
C81         C481   1.512       .  S
C81          C82   1.416       .  A
C82          C83   1.419   1_545  A
C82         H746   1.081   1_545  S
C83        C1069   1.503       .  S
C83          C84   1.403   1_565  A
C84          H87   1.083       .  S
H86         C742   1.081       .  S
C88         C397   1.498       .  S
C88          C93   1.402       .  A
C88        C1409   1.421   1_455  A
C89          C90   1.411       .  A
C89        C1408   1.421       .  A
C89          H94   1.083       .  S
C90         C556   1.482       .  S
C90          C91   1.392       .  A
C91          C92   1.395       .  A
C91          H95   1.085       .  S
C92         C508   1.473       .  S
C92        C1413   1.400       .  A
C93        C1412   1.400   1_455  A
C93          H96   1.083       .  S
C97         C604   1.499       .  S
C97          C98   1.413       .  A
C97         C102   1.409       .  A
C98          C99   1.410       .  A
C98         H103   1.082       .  S
C99         C472   1.500       .  S
C99         C100   1.406       .  A
C100        C101   1.400       .  A
C100        H104   1.082       .  S
C101        C388   1.491       .  S
C101        C102   1.402       .  A
C102        H105   1.083       .  S
C106        C592   1.500       .  S
C106        C107   1.418       .  A
C106        C111   1.410       .  A
C107        C108   1.408       .  A
C107        H112   1.083       .  S
C108        C448   1.484       .  S
C108        C109   1.391       .  A
C109        C110   1.390       .  A
C109        H113   1.085       .  S
C110        C373   1.472       .  S
C110        C111   1.405       .  A
C111        H114   1.084       .  S
O115       Zr151   2.399       .  S
O115        C126   1.285       .  A
O116       Zr150   2.460       .  S
O116        C127   1.296       .  A
O117       Zr123   2.380       .  S
O117        C128   1.283       .  A
O118       Zr123   2.399       .  S
O118        C129   1.283       .  A
O119       Zr153   2.493       .  S
O119        C129   1.301       .  A
O120       Zr152   2.507       .  S
O120        C128   1.305       .  A
O121       Zr123   2.409       .  S
O121        C127   1.285       .  A
O122       Zr123   2.442       .  S
O122        C126   1.292       .  A
Zr123       O124   2.330       .  S
Zr123       O125   2.328       .  S
Zr123       O133   2.323       .  S
Zr123       O131   2.343       .  S
O124       Zr150   2.321       .  S
O124       Zr153   2.329       .  S
O125       Zr151   2.319       .  S
O125       Zr152   2.349       .  S
C126        C433   1.462       .  S
C127        C328   1.462       .  S
C128        C400   1.504       .  S
C129        C340   1.479       .  S
H130        O131   0.963       .  S
O131       Zr150   2.349       .  S
O131       Zr152   2.325       .  S
H132        O133   0.965       .  S
O133       Zr151   2.366       .  S
O133       Zr153   2.349       .  S
O134       Zr150   2.431       .  S
O134        C157   1.291       .  A
O135       Zr151   2.387       .  S
O135        C158   1.284       .  A
O136       Zr152   2.431       .  S
O136        C159   1.293       .  A
O137       Zr153   2.419       .  S
O137        C160   1.288       .  A
O138       Zr153   2.411       .  S
O138        C161   1.290       .  A
O139       Zr152   2.343       .  S
O139        C162   1.276       .  A
O140       Zr154   2.398       .  S
O140        C163   1.285       .  A
O141       Zr154   2.395       .  S
O141        C164   1.285       .  A
O142       Zr152   2.510       .  S
O142        C163   1.304       .  A
O143       Zr153   2.479       .  S
O143        C164   1.299       .  A
O144       Zr150   2.399       .  S
O144        C159   1.284       .  A
O145       Zr151   2.575       .  S
O145        C162   1.317       .  A
O146       Zr151   2.487       .  S
O146        C161   1.303       .  A
O147       Zr150   2.479       .  S
O147        C160   1.299       .  A
O148       Zr154   2.467       .  S
O148        C157   1.298       .  A
O149       Zr154   2.473       .  S
O149        C158   1.298       .  A
Zr150       O156   2.356       .  S
Zr150       O168   2.342       .  S
Zr151       O155   2.365       .  S
Zr151       O166   2.320       .  S
Zr152       O156   2.332       .  S
Zr152       O166   2.331       .  S
Zr153       O155   2.352       .  S
Zr153       O168   2.339       .  S
Zr154       O155   2.329       .  S
Zr154       O156   2.329       .  S
Zr154       O168   2.346       .  S
Zr154       O166   2.335       .  S
C157        C352   1.504       .  S
C158        C376   1.487       .  S
C159        C361   1.480       .  S
C160        C304   1.481       .  S
C161        C385   1.487       .  S
C162        C424   1.521       .  S
C163        C412   1.491       .  S
C164        C313   1.486       .  S
H165        O166   0.963       .  S
H167        O168   0.966       .  S
C169        C577   1.511   1_554  S
C169        C170   1.422       .  A
C169        C174   1.415       .  A
C170        C171   1.412       .  A
C170        H175   1.083       .  S
C171       C1657   1.496       .  S
C171        C172   1.391       .  A
C172        C173   1.399       .  A
C172       H1496   1.085       .  S
C173        C292   1.489       .  S
C173        C174   1.412       .  A
C174        H177   1.083   1_554  S
H176       C1492   1.085   1_455  S
C178        C289   1.485       .  S
C178        C839   1.403   1_545  A
C178       C1503   1.411       .  A
C179        C229   1.469       .  S
C179        C180   1.400       .  A
C179        C838   1.403       .  A
C180        C277   1.488       .  S
C180       C1501   1.405       .  A
C181        C265   1.494   1_655  S
C181        C182   1.421   1_655  A
C181       C1500   1.405       .  A
C182        C253   1.475       .  S
C182        C843   1.423       .  A
C183        C244   1.498       .  S
C183       C1498   1.411   1_455  A
C183        C842   1.423       .  A
C184        C364   1.457       .  S
C184        C185   1.385   1_554  A
C184        C189   1.395       .  A
C185        C846   1.388       .  A
C185        H190   1.086       .  S
C186        C625   1.463       .  S
C186        C187   1.401       .  A
C186        C845   1.388       .  A
C187        C848   1.410       .  A
C187        H191   1.083       .  S
C188        C256   1.485       .  S
C188        C189   1.407   1_556  A
C188        C847   1.410       .  A
C189        H192   1.083       .  S
C193        C325   1.484       .  S
C193        C198   1.409       .  A
C193       C1514   1.392   1_454  A
C194        C195   1.389       .  A
C194       C1513   1.392   1_556  A
C194        H199   1.084       .  S
C195        C568   1.471       .  S
C195        C196   1.404       .  A
C196        C197   1.414       .  A
C196        H200   1.083       .  S
C197        C268   1.498       .  S
C197       C1518   1.408   1_556  A
C198       C1517   1.408   1_454  A
C198        H201   1.081       .  S
C202        C301   1.519       .  S
C202        C203   1.418       .  A
C202        C207   1.418       .  A
C203        C204   1.408       .  A
C203        H208   1.081       .  S
C204        C520   1.490       .  S
C204        C205   1.401       .  A
C205        C206   1.401       .  A
C205        H209   1.084       .  S
C206        C241   1.488       .  S
C206        C207   1.406       .  A
C207        H210   1.080       .  S
C211       C1276   1.488       .  S
C211        C212   1.420       .  A
C211        C216   1.398       .  A
C212        C213   1.416       .  A
C212        H217   1.083       .  S
C213        C349   1.492       .  S
C213        C214   1.398       .  A
C214        C215   1.391       .  A
C214        H218   1.085       .  S
C215        C232   1.466       .  S
C215        C216   1.392       .  A
C216        H879   1.085       .  S
H219        C876   1.085   1_545  S
C220        C532   1.464       .  S
C220        C221   1.392   1_556  A
C220        C225   1.393       .  A
C221        C222   1.400       .  A
C221        H226   1.083       .  S
C222        C316   1.496       .  S
C222        C223   1.419       .  A
C223        C224   1.416       .  A
C223        H227   1.082       .  S
C224        C280   1.496       .  S
C224        C225   1.398   1_554  A
C225        H228   1.083       .  S
C229        C230   1.404       .  A
C229        C234   1.403       .  A
C230        C231   1.393       .  A
C230        H235   1.085       .  S
C231        C232   1.406       .  A
C231        C238   1.444       .  S
C232        C233   1.405       .  A
C233        C234   1.390       .  A
C233        H236   1.085   1_556  S
C234        C897   1.441   1_556  S
C237        C894   1.441   1_554  S
C237        N239   1.157       .  T
C238        N240   1.157       .  T
C241        C242   1.405       .  A
C241        C246   1.410       .  A
C242        C243   1.407   1_556  A
C242        H247   1.084   1_556  S
C243        C244   1.413   1_554  A
C243        C250   1.442       .  S
C244        C245   1.405       .  A
C245        C246   1.401       .  A
C245        H248   1.085       .  S
C246        C249   1.444       .  S
C249        N251   1.157       .  T
C250        N252   1.157       .  T
C253        C254   1.397   1_556  A
C253        C258   1.408       .  A
C254        C255   1.394       .  A
C254        H259   1.085       .  S
C255        C256   1.417   1_554  A
C255        C262   1.444       .  S
C256        C257   1.407       .  A
C257        C258   1.396       .  A
C257        H920   1.084       .  S
C258        C921   1.443       .  S
H260        C917   1.084       .  S
C261        C918   1.443       .  S
C261        N263   1.157       .  T
C262        N264   1.157       .  T
C265        C270   1.410       .  A
C265       C1586   1.402   1_456  A
C266        C267   1.404       .  A
C266       C1585   1.402   1_554  A
C266        H271   1.084       .  S
C267        C268   1.419   1_554  A
C267        C274   1.444       .  S
C268       C1589   1.406       .  A
C269        C270   1.400   1_655  A
C269       C1588   1.406       .  A
C269        H272   1.084   1_655  S
C270        C273   1.442       .  S
C273        N275   1.157       .  T
C274        N276   1.157       .  T
C277        C278   1.393       .  A
C277        C282   1.409   1_556  A
C278        C279   1.395       .  A
C278        H283   1.085       .  S
C279        C280   1.423   1_556  A
C279        C286   1.441       .  S
C280        C281   1.407       .  A
C281        C282   1.403       .  A
C281        H284   1.084       .  S
C282        C285   1.443       .  S
C285        N287   1.157       .  T
C286        N288   1.156       .  T
C289        C294   1.407   1_556  A
C289       C1610   1.404       .  A
C290        C291   1.406       .  A
C290       C1609   1.404       .  A
C290        H295   1.084       .  S
C291       C1612   1.415   1_556  A
C291        C298   1.443       .  S
C292        C293   1.406       .  A
C292       C1611   1.415   1_554  A
C293        C294   1.394       .  A
C293        H296   1.085       .  S
C294        C297   1.445       .  S
C297        N959   1.157       .  T
C298        N300   1.157       .  T
N299        C957   1.157       .  T
C301        C302   1.415       .  A
C301        C306   1.426       .  A
C302        C303   1.405       .  A
C302        H307   1.081       .  S
C303        C304   1.405   1_556  A
C303        C310   1.445       .  S
C304        C305   1.401       .  A
C305        C306   1.408   1_554  A
C305        H308   1.085       .  S
C306        C309   1.444       .  S
C309        N311   1.158       .  T
C310        N312   1.157   1_556  T
C313        C314   1.407       .  A
C313        C318   1.406       .  A
C314        C315   1.398       .  A
C314        H319   1.081       .  S
C315        C316   1.411       .  A
C315        C322   1.444       .  S
C316        C317   1.414       .  A
C317        C318   1.404       .  A
C317        H320   1.083       .  S
C318        C321   1.442       .  S
C321        N323   1.157       .  T
C322        N324   1.157       .  T
C325        C326   1.399       .  A
C325        C330   1.421       .  A
C326        C327   1.387       .  A
C326        H331   1.083       .  S
C327        C328   1.408       .  A
C327        C334   1.439       .  S
C328        C329   1.399       .  A
C329        C330   1.401       .  A
C329        H332   1.085       .  S
C330        C333   1.445   1_455  S
C333        N335   1.157       .  T
C334        N336   1.155       .  T
C337       C1491   1.496   1_455  S
C337        C338   1.413       .  A
C337        C342   1.411       .  A
C338        C339   1.409       .  A
C338        H343   1.084       .  S
C339        C340   1.407       .  A
C339        C346   1.443       .  S
C340        C341   1.406       .  A
C341        C342   1.402       .  A
C341        H344   1.085       .  S
C342        C345   1.444       .  S
C345        N347   1.157   1_554  T
C346        N348   1.157       .  T
C349        C350   1.406   1_556  A
C349        C354   1.407       .  A
C350        C351   1.398       .  A
C350        H355   1.086       .  S
C351        C352   1.419       .  A
C351        C358   1.445       .  S
C352        C353   1.417   1_554  A
C353        C354   1.410       .  A
C353        H356   1.084       .  S
C354        C357   1.443       .  S
C357        N359   1.157       .  T
C358        N360   1.158       .  T
C361        C362   1.408       .  A
C361        C366   1.422       .  A
C362        C363   1.393       .  A
C362        H367   1.084       .  S
C363        C364   1.404       .  A
C363        C370   1.444       .  S
C364        C365   1.395       .  A
C365        C366   1.390       .  A
C365        H368   1.086   1_554  S
C366        C369   1.446       .  S
C369        N371   1.158   1_554  T
C370       N1032   1.157       .  T
N372       C1030   1.157   1_545  T
C373        C374   1.405       .  A
C373        C378   1.401       .  A
C374        C375   1.398       .  A
C374        H379   1.084       .  S
C375        C376   1.412       .  A
C375        C382   1.442       .  S
C376        C377   1.415       .  A
C377        C378   1.395       .  A
C377        H380   1.084       .  S
C378        C381   1.444       .  S
C381        N383   1.157       .  T
C382        N384   1.157       .  T
C385        C386   1.408       .  A
C385        C390   1.411       .  A
C386        C387   1.399       .  A
C386        H391   1.085       .  S
C387        C388   1.411       .  A
C387        C394   1.444       .  S
C388        C389   1.409       .  A
C389        C390   1.404       .  A
C389        H392   1.085       .  S
C390        C393   1.442       .  S
C393        N395   1.156       .  T
C394        N396   1.157       .  T
C397        C398   1.415       .  A
C397        C402   1.408       .  A
C398        C399   1.410       .  A
C398        H403   1.084       .  S
C399        C400   1.412       .  A
C399        C406   1.441       .  S
C400        C401   1.416       .  A
C401        C402   1.397       .  A
C401        H404   1.084       .  S
C402        C405   1.445       .  S
C405        N407   1.157   1_455  T
C406        N408   1.157       .  T
C409        C743   1.503       .  S
C409        C410   1.418       .  A
C409        C414   1.412       .  A
C410        C411   1.413       .  A
C410        H415   1.084       .  S
C411        C412   1.406       .  A
C411        C418   1.442       .  S
C412        C413   1.409       .  A
C413        C414   1.398       .  A
C413        H416   1.084       .  S
C414        C417   1.445       .  S
C417        N419   1.157       .  T
C418        N420   1.157       .  T
C421        C422   1.416       .  A
C421        C426   1.404       .  A
C422        C423   1.426       .  A
C422        H427   1.084       .  S
C423        C424   1.413       .  A
C423        C430   1.438       .  S
C424        C425   1.420       .  A
C425        C426   1.397       .  A
C425        H428   1.085       .  S
C426        C429   1.447       .  S
C429        N431   1.157       .  T
C430        N432   1.157       .  T
C433        C434   1.402       .  A
C433        C438   1.405       .  A
C434        C435   1.397       .  A
C434        H439   1.085       .  S
C435        C436   1.413       .  A
C435        C442   1.444       .  S
C436        C437   1.404       .  A
C437        C438   1.390       .  A
C437        H440   1.085       .  S
C438        C441   1.440       .  S
C441        N443   1.155       .  T
C442        N444   1.157       .  T
C445        C446   1.397       .  A
C445        C450   1.412       .  A
C446        C447   1.395       .  A
C446        H451   1.085       .  S
C447        C448   1.419       .  A
C447        C454   1.445       .  S
C448        C449   1.401       .  A
C449        C450   1.401       .  A
C449        H452   1.084       .  S
C450        C453   1.442       .  S
C453        N455   1.157       .  T
C454        N456   1.157       .  T
C457        C458   1.408       .  A
C457        C462   1.416       .  A
C458        C459   1.396       .  A
C458        H463   1.083       .  S
C459        C460   1.406       .  A
C459        C466   1.443       .  S
C460        C461   1.398       .  A
C461        C462   1.390       .  A
C461       H1784   1.085       .  S
C462       C1785   1.442       .  S
H464       C1781   1.085       .  S
C465       C1782   1.442       .  S
C465        N467   1.156       .  T
C466        N468   1.157       .  T
C469        C470   1.416       .  A
C469        C474   1.421       .  A
C470        C471   1.398       .  A
C470        H475   1.059       .  S
C471        C472   1.410       .  A
C471        C478   1.448       .  S
C472        C473   1.406       .  A
C473        C474   1.410       .  A
C473        H476   1.084       .  S
C474        C477   1.442       .  S
C477        N479   1.158       .  T
C478        N480   1.157       .  T
C481        C482   1.410       .  A
C481        C486   1.417       .  A
C482       C1143   1.406       .  A
C482       H1147   1.084       .  S
C483       C1142   1.406       .  A
C483       C1144   1.412       .  A
C483        C490   1.440       .  S
C484        C485   1.408       .  A
C484       C1143   1.412       .  A
C485        C486   1.412       .  A
C485        H488   1.084       .  S
C486        C489   1.443       .  S
H487       C1142   1.084       .  S
C489        N491   1.157       .  T
C490        N492   1.157       .  T
C493        C494   1.404       .  A
C493        C498   1.413       .  A
C494        C495   1.396       .  A
C494        H499   1.081       .  S
C495        C496   1.409       .  A
C495        C502   1.445       .  S
C496        C497   1.409       .  A
C497        C498   1.412       .  A
C497        H500   1.084       .  S
C498        C501   1.442   1_565  S
C501        N503   1.157       .  T
C502        N504   1.157       .  T
C505        C506   1.402       .  A
C505        C510   1.407       .  A
C506        C507   1.395       .  A
C506        H511   1.085       .  S
C507        C508   1.410       .  A
C507        C514   1.444       .  S
C508        C509   1.404       .  A
C509        C510   1.389       .  A
C509        H512   1.085       .  S
C510        C513   1.442       .  S
C513        N515   1.157       .  T
C514        N516   1.157       .  T
C517        C518   1.412       .  A
C517        C522   1.420       .  A
C518        C519   1.406       .  A
C518        H523   1.084       .  S
C519        C520   1.410       .  A
C519        C526   1.443       .  S
C520        C521   1.402       .  A
C521        C522   1.405       .  A
C521        H524   1.085       .  S
C522        C525   1.443       .  S
C525        N527   1.157       .  T
C526        N528   1.157       .  T
C529        C530   1.402       .  A
C529        C534   1.422       .  A
C530        C531   1.391       .  A
C530        H535   1.085       .  S
C531        C532   1.407       .  A
C531        C538   1.443       .  S
C532        C533   1.395       .  A
C533        C534   1.394       .  A
C533        H536   1.085   1_556  S
C534        C537   1.444       .  S
C537        N539   1.158       .  T
C538        N540   1.157       .  T
C541        C542   1.407       .  A
C541        C546   1.413       .  A
C542        C543   1.389       .  A
C542        H547   1.085       .  S
C543        C544   1.403       .  A
C543        C550   1.443       .  S
C544       C1381   1.460       .  S
C544        C545   1.401       .  A
C545        C546   1.387       .  A
C545        H548   1.085       .  S
C546        C549   1.446       .  S
C549        N551   1.158       .  T
C550       N1872   1.157       .  T
N552       C1870   1.157   1_455  T
C553        C554   1.405       .  A
C553        C558   1.416       .  A
C554        C555   1.406       .  A
C554        H559   1.085       .  S
C555        C556   1.412       .  A
C555        C562   1.443       .  S
C556        C557   1.401       .  A
C557        C558   1.402       .  A
C557        H560   1.085       .  S
C558        C561   1.444       .  S
C561        N563   1.157       .  T
C562       N1884   1.157       .  T
N564       C1882   1.157   1_455  T
C565        C566   1.407       .  A
C565        C570   1.412       .  A
C566        C567   1.407       .  A
C566        H571   1.084       .  S
C567        C568   1.409       .  A
C567       C1894   1.442       .  S
C568        C569   1.394       .  A
C569        C570   1.391       .  A
C569        H572   1.086       .  S
C570        C573   1.432       .  S
C573        N575   1.152       .  T
C574       C1887   1.442   1_455  S
C574        N576   1.157       .  T
C577        C578   1.396       .  A
C577        C582   1.422       .  A
C578        C579   1.397       .  A
C578        H583   1.085       .  S
C579        C580   1.426       .  A
C579        C586   1.440       .  S
C580        C581   1.411       .  A
C581        C582   1.423       .  A
C581        H584   1.083       .  S
C582        C585   1.442   1_556  S
C585        N587   1.157       .  T
C586        N588   1.156       .  T
C589        C590   1.407       .  A
C589        C594   1.408       .  A
C590        C591   1.396       .  A
C590        H595   1.086       .  S
C591        C592   1.413       .  A
C591        C598   1.446       .  S
C592        C593   1.415       .  A
C593        C594   1.414       .  A
C593        H596   1.084       .  S
C594        C597   1.442       .  S
C597        N599   1.157       .  T
C598        N600   1.157       .  T
C601        C602   1.404       .  A
C601        C606   1.408       .  A
C602        C603   1.407       .  A
C602        H607   1.085       .  S
C603        C604   1.418       .  A
C603        C610   1.444       .  S
C604        C605   1.407       .  A
C605        C606   1.397       .  A
C605        H608   1.084       .  S
C606        C609   1.440       .  S
C609        N611   1.156       .  T
C610        N612   1.157       .  T
C613        C614   1.416       .  A
C613        C618   1.414       .  A
C614        C615   1.400       .  A
C614        H619   1.085       .  S
C615        C616   1.404       .  A
C615        C622   1.444   1_545  S
C616        C871   1.488   1_545  S
C616        C617   1.410       .  A
C617        C618   1.405       .  A
C617        H620   1.085       .  S
C618        C621   1.443       .  S
C621        N623   1.157       .  T
C622       N1284   1.157       .  T
N624       C1282   1.157       .  T
C625        C626   1.400       .  A
C625        C630   1.408       .  A
C626        C627   1.389       .  A
C626        H631   1.086       .  S
C627        C628   1.411       .  A
C627        C634   1.445       .  S
C628        C629   1.404       .  A
C629        C630   1.397       .  A
C629        H632   1.085       .  S
C630        C633   1.444       .  S
C633        N635   1.157       .  T
C634        N636   1.157       .  T
C637        C638   1.416       .  A
C637        C642   1.411       .  A
C638        C639   1.405       .  A
C638        H643   1.084       .  S
C639        C640   1.402       .  A
C639        C646   1.443       .  S
C640        C641   1.407       .  A
C641        C642   1.398       .  A
C641        H644   1.086       .  S
C642        C645   1.444       .  S
C645        N647   1.157       .  T
C646        N648   1.157       .  T
C649        C650   1.405       .  A
C649        C654   1.418       .  A
C650        C651   1.399       .  A
C650        H655   1.085       .  S
C651        C652   1.411       .  A
C651        C658   1.442       .  S
C652        C653   1.404       .  A
C653        C654   1.404       .  A
C653        H656   1.085       .  S
C654        C657   1.444       .  S
C657        N659   1.157       .  T
C658        N660   1.156       .  T
O661       Zr697   2.422       .  S
O661        C672   1.289       .  A
O662       Zr696   2.393       .  S
O662        C673   1.285       .  A
O663       Zr669   2.391       .  S
O663        C674   1.285       .  A
O664       Zr669   2.397       .  S
O664        C675   1.285       .  A
O665       Zr699   2.492       .  S
O665        C675   1.301       .  A
O666       Zr698   2.504       .  S
O666        C674   1.304       .  A
O667       Zr669   2.438       .  S
O667        C673   1.292       .  A
O668       Zr669   2.459       .  S
O668        C672   1.295       .  A
Zr669       O670   2.337       .  S
Zr669       O671   2.326       .  S
Zr669       O679   2.324       .  S
Zr669       O677   2.333       .  S
O670       Zr696   2.357       .  S
O670       Zr699   2.349       .  S
O671       Zr697   2.346       .  S
O671       Zr698   2.344       .  S
C672       C1312   1.480       .  S
C673       C1288   1.462       .  S
C674       C1273   1.499       .  S
C675       C1300   1.473       .  S
H676        O677   0.964       .  S
O677       Zr696   2.306       .  S
O677       Zr698   2.334       .  S
H678        O679   0.963       .  S
O679       Zr697   2.314       .  S
O679       Zr699   2.352       .  S
O680       Zr696   2.392       .  S
O680        C703   1.284       .  A
O681       Zr697   2.411       .  S
O681        C704   1.287       .  A
O682       Zr698   2.368       .  S
O682        C705   1.280       .  A
O683       Zr699   2.449       .  S
O683        C706   1.297       .  A
O684       Zr699   2.399       .  S
O684        C707   1.286       .  A
O685       Zr698   2.394       .  S
O685        C708   1.287       .  A
O686       Zr700   2.371       .  S
O686        C709   1.276       .  A
O687       Zr700   2.390       .  S
O687        C710   1.283       .  A
O688       Zr698   2.509       .  S
O688        C709   1.303       .  A
O689       Zr699   2.501       .  S
O689        C710   1.302       .  A
O690       Zr696   2.572       .  S
O690        C705   1.318       .  A
O691       Zr697   2.426       .  S
O691        C708   1.290       .  A
O692       Zr697   2.488       .  S
O692        C707   1.300       .  A
O693       Zr696   2.468       .  S
O693        C706   1.299       .  A
O694       Zr700   2.462       .  S
O694        C703   1.298       .  A
O695       Zr700   2.483       .  S
O695        C704   1.299       .  A
Zr696       O702   2.323       .  S
Zr696       O714   2.374       .  S
Zr697       O701   2.333       .  S
Zr697       O712   2.354       .  S
Zr698       O702   2.325       .  S
Zr698       O712   2.349       .  S
Zr699       O701   2.341       .  S
Zr699       O714   2.347       .  S
Zr700       O701   2.325       .  S
Zr700       O702   2.345       .  S
Zr700       O714   2.339       .  S
Zr700       O712   2.330       .  S
C703       C1189   1.474       .  S
C704       C1213   1.487       .  S
C705       C1240   1.509       .  S
C706       C1177   1.502       .  S
C707       C1261   1.473       .  S
C708       C1201   1.467       .  S
C709       C1225   1.477       .  S
C710       C1249   1.487       .  S
H711        O712   0.965       .  S
H713        O714   0.966       .  S
C715       C1105   1.486       .  S
C715        C716   1.401       .  A
C716       C1165   1.480       .  S
C716       C1377   1.423       .  A
C717       C1153   1.504       .  S
C717       C1376   1.423       .  A
C717        C718   1.448       .  A
C718       C1129   1.569       .  S
C718        C719   1.460       .  A
C719       C1120   1.463       .  S
C719       C2040   1.422   1_455  A
C720       C1144   1.516       .  S
C720       C2039   1.422       .  A
C721       C2524   1.460   1_455  S
C721        C722   1.393       .  A
C721        C726   1.387       .  A
C722        C723   1.401       .  A
C722        H727   1.084   1_455  S
C723       C1117   1.479       .  S
C723        C724   1.409       .  A
C724        C725   1.403       .  A
C724        H728   1.083       .  S
C725       C1096   1.473       .  S
C725        C726   1.392       .  A
C726        H729   1.085       .  S
C730       C1081   1.502       .  S
C730        C735   1.418       .  A
C731        C732   1.413       .  A
C731        H736   1.083       .  S
C732       C1297   1.494       .  S
C732        C733   1.394       .  A
C733        C734   1.394       .  A
C733        H737   1.085       .  S
C734       C1156   1.485       .  S
C735        H738   1.083       .  S
C739       C1309   1.495       .  S
C739        C740   1.408       .  A
C739        C744   1.402       .  A
C740        C741   1.409       .  A
C740        H745   1.083       .  S
C741       C1141   1.512       .  S
C741        C742   1.416       .  A
C742        C743   1.419       .  A
C743        C744   1.403       .  A
C744        H747   1.083       .  S
C748       C1057   1.498       .  S
C748       C2069   1.421   1_455  A
C748        C753   1.402       .  A
C749       C2068   1.421       .  A
C749        C750   1.411       .  A
C749        H754   1.083       .  S
C750       C1216   1.482       .  S
C750        C751   1.392       .  A
C751        C752   1.395       .  A
C751        H755   1.085       .  S
C752       C1168   1.473       .  S
C752       C2073   1.400       .  A
C753       C2072   1.400   1_455  A
C753        H756   1.083       .  S
C757       C1264   1.499       .  S
C757        C758   1.413       .  A
C757        C762   1.409       .  A
C758        C759   1.410       .  A
C758        H763   1.082       .  S
C759       C1132   1.500       .  S
C759        C760   1.406       .  A
C760        C761   1.400       .  A
C760        H764   1.082       .  S
C761       C1048   1.491       .  S
C761        C762   1.402       .  A
C762        H765   1.083       .  S
C766       C1252   1.500       .  S
C766        C767   1.418       .  A
C766        C771   1.410       .  A
C767        C768   1.408       .  A
C767        H772   1.083       .  S
C768       C1108   1.484       .  S
C768        C769   1.391       .  A
C769        C770   1.390       .  A
C769        H773   1.085       .  S
C770       C1033   1.472       .  S
C770        C771   1.405       .  A
C771        H774   1.084       .  S
O775       Zr811   2.399       .  S
O775        C786   1.285       .  A
O776       Zr810   2.460       .  S
O776        C787   1.296       .  A
O777       Zr783   2.380       .  S
O777        C788   1.283       .  A
O778       Zr783   2.399       .  S
O778        C789   1.283       .  A
O779       Zr813   2.493       .  S
O779        C789   1.301       .  A
O780       Zr812   2.507       .  S
O780        C788   1.305       .  A
O781       Zr783   2.409       .  S
O781        C787   1.285       .  A
O782       Zr783   2.442       .  S
O782        C786   1.292       .  A
Zr783       O784   2.330       .  S
Zr783       O785   2.328       .  S
Zr783       O793   2.323       .  S
Zr783       O791   2.343       .  S
O784       Zr810   2.321       .  S
O784       Zr813   2.329       .  S
O785       Zr811   2.319       .  S
O785       Zr812   2.349       .  S
C786       C1093   1.462       .  S
C787        C988   1.462       .  S
C788       C1060   1.504       .  S
C789       C1000   1.479       .  S
H790        O791   0.963       .  S
O791       Zr810   2.349       .  S
O791       Zr812   2.325       .  S
H792        O793   0.965       .  S
O793       Zr811   2.366       .  S
O793       Zr813   2.349       .  S
O794       Zr810   2.431       .  S
O794        C817   1.291       .  A
O795       Zr811   2.387       .  S
O795        C818   1.284       .  A
O796       Zr812   2.431       .  S
O796        C819   1.293       .  A
O797       Zr813   2.419       .  S
O797        C820   1.288       .  A
O798       Zr813   2.411       .  S
O798        C821   1.290       .  A
O799       Zr812   2.343       .  S
O799        C822   1.276       .  A
O800       Zr814   2.398       .  S
O800        C823   1.285       .  A
O801       Zr814   2.395       .  S
O801        C824   1.285       .  A
O802       Zr812   2.510       .  S
O802        C823   1.304       .  A
O803       Zr813   2.479       .  S
O803        C824   1.299       .  A
O804       Zr810   2.399       .  S
O804        C819   1.284       .  A
O805       Zr811   2.575       .  S
O805        C822   1.317       .  A
O806       Zr811   2.487       .  S
O806        C821   1.303       .  A
O807       Zr810   2.479       .  S
O807        C820   1.299       .  A
O808       Zr814   2.467       .  S
O808        C817   1.298       .  A
O809       Zr814   2.473       .  S
O809        C818   1.298       .  A
Zr810       O816   2.356       .  S
Zr810       O828   2.342       .  S
Zr811       O815   2.365       .  S
Zr811       O826   2.320       .  S
Zr812       O816   2.332       .  S
Zr812       O826   2.331       .  S
Zr813       O815   2.352       .  S
Zr813       O828   2.339       .  S
Zr814       O815   2.329       .  S
Zr814       O816   2.329       .  S
Zr814       O828   2.346       .  S
Zr814       O826   2.335       .  S
C817       C1012   1.504       .  S
C818       C1036   1.487       .  S
C819       C1021   1.480       .  S
C820        C964   1.481       .  S
C821       C1045   1.487       .  S
C822       C1084   1.521       .  S
C823       C1072   1.491       .  S
C824        C973   1.486       .  S
H825        O826   0.963       .  S
H827        O828   0.966       .  S
C829       C1237   1.511   1_554  S
C829        C830   1.422       .  A
C829        C834   1.415       .  A
C830        C831   1.412       .  A
C830        H835   1.083       .  S
C831       C2317   1.496       .  S
C831        C832   1.391       .  A
C832        C833   1.399       .  A
C832       H2156   1.085       .  S
C833        C952   1.489       .  S
C833        C834   1.412       .  A
C834        H837   1.083   1_554  S
H836       C2152   1.085   1_455  S
C838        C949   1.485       .  S
C838       C2163   1.411       .  A
C839        C889   1.469       .  S
C839        C840   1.400       .  A
C840        C937   1.488       .  S
C840       C2161   1.405       .  A
C841        C925   1.494   1_655  S
C841       C2160   1.405       .  A
C841        C842   1.421   1_665  A
C842        C913   1.475       .  S
C843        C904   1.498       .  S
C843       C2158   1.411   1_455  A
C844       C1024   1.457       .  S
C844        C845   1.385   1_564  A
C844        C849   1.395       .  A
C845        H850   1.086   1_545  S
C846       C1285   1.463       .  S
C846        C847   1.401       .  A
C847        H851   1.083       .  S
C848        C916   1.485       .  S
C848        C849   1.407   1_546  A
C849        H852   1.083       .  S
C853        C985   1.484       .  S
C853       C2174   1.392   1_454  A
C853        C858   1.409       .  A
C854       C2173   1.392   1_556  A
C854        C855   1.389       .  A
C854        H859   1.084       .  S
C855       C1228   1.471       .  S
C855        C856   1.404       .  A
C856        C857   1.414       .  A
C856        H860   1.083       .  S
C857        C928   1.498       .  S
C857       C2178   1.408   1_556  A
C858       C2177   1.408   1_454  A
C858        H861   1.081       .  S
C862        C961   1.519       .  S
C862        C863   1.418       .  A
C862        C867   1.418       .  A
C863        C864   1.408       .  A
C863        H868   1.081       .  S
C864       C1180   1.490       .  S
C864        C865   1.401       .  A
C865        C866   1.401       .  A
C865        H869   1.084       .  S
C866        C901   1.488       .  S
C866        C867   1.406       .  A
C867        H870   1.080       .  S
C871        C872   1.420       .  A
C871        C876   1.398       .  A
C872        C873   1.416       .  A
C872        H877   1.083       .  S
C873       C1009   1.492       .  S
C873        C874   1.398       .  A
C874        C875   1.391       .  A
C874        H878   1.085       .  S
C875        C892   1.466       .  S
C875        C876   1.392       .  A
C880       C1192   1.464       .  S
C880        C881   1.392   1_556  A
C880        C885   1.393       .  A
C881        C882   1.400       .  A
C881        H886   1.083       .  S
C882        C976   1.496       .  S
C882        C883   1.419       .  A
C883        C884   1.416       .  A
C883        H887   1.082       .  S
C884        C940   1.496       .  S
C884        C885   1.398   1_554  A
C885        H888   1.083       .  S
C889        C890   1.404       .  A
C889        C894   1.403       .  A
C890        C891   1.393       .  A
C890        H895   1.085       .  S
C891        C892   1.406       .  A
C891        C898   1.444       .  S
C892        C893   1.405       .  A
C893        C894   1.390       .  A
C893        H896   1.085   1_556  S
C897        N899   1.157       .  T
C898        N900   1.157       .  T
C901        C902   1.405       .  A
C901        C906   1.410       .  A
C902        C903   1.407   1_556  A
C902        H907   1.084   1_556  S
C903        C904   1.413   1_554  A
C903        C910   1.442       .  S
C904        C905   1.405       .  A
C905        C906   1.401       .  A
C905        H908   1.085       .  S
C906        C909   1.444       .  S
C909        N911   1.157       .  T
C910        N912   1.157       .  T
C913        C914   1.397   1_556  A
C913        C918   1.408       .  A
C914        C915   1.394       .  A
C914        H919   1.085   1_545  S
C915        C916   1.417   1_554  A
C915        C922   1.444       .  S
C916        C917   1.407       .  A
C917        C918   1.396       .  A
C921        N923   1.157       .  T
C922        N924   1.157       .  T
C925       C2246   1.402   1_456  A
C925        C930   1.410       .  A
C926       C2245   1.402   1_554  A
C926        C927   1.404       .  A
C926        H931   1.084       .  S
C927        C928   1.419   1_554  A
C927        C934   1.444       .  S
C928       C2249   1.406       .  A
C929       C2248   1.406       .  A
C929        C930   1.400   1_655  A
C929        H932   1.084   1_655  S
C930        C933   1.442       .  S
C933        N935   1.157       .  T
C934        N936   1.157       .  T
C937        C938   1.393       .  A
C937        C942   1.409   1_556  A
C938        C939   1.395       .  A
C938        H943   1.085       .  S
C939        C940   1.423   1_556  A
C939        C946   1.441       .  S
C940        C941   1.407       .  A
C941        C942   1.403       .  A
C941        H944   1.084       .  S
C942        C945   1.443       .  S
C945        N947   1.157       .  T
C946        N948   1.156       .  T
C949       C2270   1.404       .  A
C949        C954   1.407   1_556  A
C950       C2269   1.404       .  A
C950        C951   1.406       .  A
C950        H955   1.084       .  S
C951       C2272   1.415   1_556  A
C951        C958   1.443       .  S
C952       C2271   1.415   1_554  A
C952        C953   1.406       .  A
C953        C954   1.394       .  A
C953        H956   1.085       .  S
C954        C957   1.445       .  S
C958        N960   1.157       .  T
C961        C962   1.415       .  A
C961        C966   1.426       .  A
C962        C963   1.405       .  A
C962        H967   1.081       .  S
C963        C964   1.405   1_556  A
C963        C970   1.445       .  S
C964        C965   1.401       .  A
C965        C966   1.408   1_554  A
C965        H968   1.085       .  S
C966        C969   1.444       .  S
C969        N971   1.158       .  T
C970        N972   1.157   1_556  T
C973        C974   1.407       .  A
C973        C978   1.406       .  A
C974        C975   1.398       .  A
C974        H979   1.081       .  S
C975        C976   1.411       .  A
C975        C982   1.444       .  S
C976        C977   1.414       .  A
C977        C978   1.404       .  A
C977        H980   1.083       .  S
C978        C981   1.442       .  S
C981        N983   1.157       .  T
C982        N984   1.157       .  T
C985        C986   1.399       .  A
C985        C990   1.421       .  A
C986        C987   1.387       .  A
C986        H991   1.083       .  S
C987        C988   1.408       .  A
C987        C994   1.439       .  S
C988        C989   1.399       .  A
C989        C990   1.401       .  A
C989        H992   1.085       .  S
C990        C993   1.445   1_455  S
C993        N995   1.157       .  T
C994        N996   1.155       .  T
C997       C2151   1.496   1_455  S
C997        C998   1.413       .  A
C997       C1002   1.411       .  A
C998        C999   1.409       .  A
C998       H1003   1.084       .  S
C999       C1000   1.407       .  A
C999       C1006   1.443       .  S
C1000      C1001   1.406       .  A
C1001      C1002   1.402       .  A
C1001      H1004   1.085       .  S
C1002      C1005   1.444       .  S
C1005      N1007   1.157   1_554  T
C1006      N1008   1.157       .  T
C1009      C1010   1.406   1_556  A
C1009      C1014   1.407       .  A
C1010      C1011   1.398       .  A
C1010      H1015   1.086       .  S
C1011      C1012   1.419       .  A
C1011      C1018   1.445       .  S
C1012      C1013   1.417   1_554  A
C1013      C1014   1.410       .  A
C1013      H1016   1.084       .  S
C1014      C1017   1.443       .  S
C1017      N1019   1.157       .  T
C1018      N1020   1.158       .  T
C1021      C1022   1.408       .  A
C1021      C1026   1.422       .  A
C1022      C1023   1.393       .  A
C1022      H1027   1.084       .  S
C1023      C1024   1.404       .  A
C1023      C1030   1.444       .  S
C1024      C1025   1.395       .  A
C1025      C1026   1.390       .  A
C1025      H1028   1.086   1_554  S
C1026      C1029   1.446       .  S
C1029      N1031   1.158   1_554  T
C1033      C1034   1.405       .  A
C1033      C1038   1.401       .  A
C1034      C1035   1.398       .  A
C1034      H1039   1.084       .  S
C1035      C1036   1.412       .  A
C1035      C1042   1.442       .  S
C1036      C1037   1.415       .  A
C1037      C1038   1.395       .  A
C1037      H1040   1.084       .  S
C1038      C1041   1.444       .  S
C1041      N1043   1.157       .  T
C1042      N1044   1.157       .  T
C1045      C1046   1.408       .  A
C1045      C1050   1.411       .  A
C1046      C1047   1.399       .  A
C1046      H1051   1.085       .  S
C1047      C1048   1.411       .  A
C1047      C1054   1.444       .  S
C1048      C1049   1.409       .  A
C1049      C1050   1.404       .  A
C1049      H1052   1.085       .  S
C1050      C1053   1.442       .  S
C1053      N1055   1.156       .  T
C1054      N1056   1.157       .  T
C1057      C1058   1.415       .  A
C1057      C1062   1.408       .  A
C1058      C1059   1.410       .  A
C1058      H1063   1.084       .  S
C1059      C1060   1.412       .  A
C1059      C1066   1.441       .  S
C1060      C1061   1.416       .  A
C1061      C1062   1.397       .  A
C1061      H1064   1.084       .  S
C1062      C1065   1.445       .  S
C1065      N1067   1.157   1_455  T
C1066      N1068   1.157       .  T
C1069      C1070   1.418       .  A
C1069      C1074   1.412       .  A
C1070      C1071   1.413       .  A
C1070      H1075   1.084   1_565  S
C1071      C1072   1.406       .  A
C1071      C1078   1.442       .  S
C1072      C1073   1.409       .  A
C1073      C1074   1.398       .  A
C1073      H1076   1.084       .  S
C1074      C1077   1.445       .  S
C1077      N1079   1.157       .  T
C1078      N1080   1.157       .  T
C1081      C1082   1.416       .  A
C1081      C1086   1.404       .  A
C1082      C1083   1.426       .  A
C1082      H1087   1.084       .  S
C1083      C1084   1.413       .  A
C1083      C1090   1.438       .  S
C1084      C1085   1.420       .  A
C1085      C1086   1.397       .  A
C1085      H1088   1.085       .  S
C1086      C1089   1.447       .  S
C1089      N1091   1.157       .  T
C1090      N1092   1.157       .  T
C1093      C1094   1.402       .  A
C1093      C1098   1.405       .  A
C1094      C1095   1.397       .  A
C1094      H1099   1.085       .  S
C1095      C1096   1.413       .  A
C1095      C1102   1.444       .  S
C1096      C1097   1.404       .  A
C1097      C1098   1.390       .  A
C1097      H1100   1.085       .  S
C1098      C1101   1.440       .  S
C1101      N1103   1.155       .  T
C1102      N1104   1.157       .  T
C1105      C1106   1.397       .  A
C1105      C1110   1.412       .  A
C1106      C1107   1.395       .  A
C1106      H1111   1.085       .  S
C1107      C1108   1.419       .  A
C1107      C1114   1.445       .  S
C1108      C1109   1.401       .  A
C1109      C1110   1.401       .  A
C1109      H1112   1.084       .  S
C1110      C1113   1.442       .  S
C1113      N1115   1.157       .  T
C1114      N1116   1.157       .  T
C1117      C1118   1.408       .  A
C1117      C1122   1.416       .  A
C1118      C1119   1.396       .  A
C1118      H1123   1.083       .  S
C1119      C1120   1.406       .  A
C1119      C1126   1.443       .  S
C1120      C1121   1.398       .  A
C1121      C1122   1.390       .  A
C1121      H2444   1.085       .  S
C1122      C2445   1.442       .  S
H1124      C2441   1.085       .  S
C1125      C2442   1.442       .  S
C1125      N1127   1.156       .  T
C1126      N1128   1.157       .  T
C1129      C1130   1.416       .  A
C1129      C1134   1.421       .  A
C1130      C1131   1.398       .  A
C1130      H1135   1.059       .  S
C1131      C1132   1.410       .  A
C1131      C1138   1.448       .  S
C1132      C1133   1.406       .  A
C1133      C1134   1.410       .  A
C1133      H1136   1.084       .  S
C1134      C1137   1.442       .  S
C1137      N1139   1.158       .  T
C1138      N1140   1.157       .  T
C1141      C1142   1.410       .  A
C1141      C1146   1.417       .  A
C1143      C1150   1.440       .  S
C1144      C1145   1.408       .  A
C1145      C1146   1.412       .  A
C1145      H1148   1.084       .  S
C1146      C1149   1.443       .  S
C1149      N1151   1.157       .  T
C1150      N1152   1.157       .  T
C1153      C1154   1.404       .  A
C1153      C1158   1.413       .  A
C1154      C1155   1.396       .  A
C1154      H1159   1.081       .  S
C1155      C1156   1.409       .  A
C1155      C1162   1.445       .  S
C1156      C1157   1.409       .  A
C1157      C1158   1.412       .  A
C1157      H1160   1.084       .  S
C1158      C1161   1.442       .  S
C1161      N1163   1.157       .  T
C1162      N1164   1.157       .  T
C1165      C1166   1.402       .  A
C1165      C1170   1.407       .  A
C1166      C1167   1.395       .  A
C1166      H1171   1.085       .  S
C1167      C1168   1.410       .  A
C1167      C1174   1.444       .  S
C1168      C1169   1.404       .  A
C1169      C1170   1.389       .  A
C1169      H1172   1.085       .  S
C1170      C1173   1.442       .  S
C1173      N1175   1.157       .  T
C1174      N1176   1.157       .  T
C1177      C1178   1.412       .  A
C1177      C1182   1.420       .  A
C1178      C1179   1.406       .  A
C1178      H1183   1.084       .  S
C1179      C1180   1.410       .  A
C1179      C1186   1.443       .  S
C1180      C1181   1.402       .  A
C1181      C1182   1.405       .  A
C1181      H1184   1.085       .  S
C1182      C1185   1.443       .  S
C1185      N1187   1.157       .  T
C1186      N1188   1.157       .  T
C1189      C1190   1.402       .  A
C1189      C1194   1.422       .  A
C1190      C1191   1.391       .  A
C1190      H1195   1.085       .  S
C1191      C1192   1.407       .  A
C1191      C1198   1.443       .  S
C1192      C1193   1.395       .  A
C1193      C1194   1.394       .  A
C1193      H1196   1.085   1_556  S
C1194      C1197   1.444       .  S
C1197      N1199   1.158       .  T
C1198      N1200   1.157       .  T
C1201      C1202   1.407       .  A
C1201      C1206   1.413       .  A
C1202      C1203   1.389       .  A
C1202      H1207   1.085       .  S
C1203      C1204   1.403       .  A
C1203      C1210   1.443       .  S
C1204      C2041   1.460       .  S
C1204      C1205   1.401       .  A
C1205      C1206   1.387       .  A
C1205      H1208   1.085       .  S
C1206      C1209   1.446       .  S
C1209      N1211   1.158       .  T
C1210      N2532   1.157       .  T
N1212      C2530   1.157   1_455  T
C1213      C1214   1.405       .  A
C1213      C1218   1.416       .  A
C1214      C1215   1.406       .  A
C1214      H1219   1.085       .  S
C1215      C1216   1.412       .  A
C1215      C1222   1.443       .  S
C1216      C1217   1.401       .  A
C1217      C1218   1.402       .  A
C1217      H1220   1.085       .  S
C1218      C1221   1.444       .  S
C1221      N1223   1.157       .  T
C1222      N2544   1.157       .  T
N1224      C2542   1.157   1_455  T
C1225      C1226   1.407       .  A
C1225      C1230   1.412       .  A
C1226      C1227   1.407       .  A
C1226      H1231   1.084       .  S
C1227      C1228   1.409       .  A
C1227      C2554   1.442       .  S
C1228      C1229   1.394       .  A
C1229      C1230   1.391       .  A
C1229      H1232   1.086       .  S
C1230      C1233   1.432       .  S
C1233      N1235   1.152       .  T
C1234      C2547   1.442   1_455  S
C1234      N1236   1.157       .  T
C1237      C1238   1.396       .  A
C1237      C1242   1.422       .  A
C1238      C1239   1.397       .  A
C1238      H1243   1.085       .  S
C1239      C1240   1.426       .  A
C1239      C1246   1.440       .  S
C1240      C1241   1.411       .  A
C1241      C1242   1.423       .  A
C1241      H1244   1.083       .  S
C1242      C1245   1.442   1_556  S
C1245      N1247   1.157       .  T
C1246      N1248   1.156       .  T
C1249      C1250   1.407       .  A
C1249      C1254   1.408       .  A
C1250      C1251   1.396       .  A
C1250      H1255   1.086       .  S
C1251      C1252   1.413       .  A
C1251      C1258   1.446       .  S
C1252      C1253   1.415       .  A
C1253      C1254   1.414       .  A
C1253      H1256   1.084       .  S
C1254      C1257   1.442       .  S
C1257      N1259   1.157       .  T
C1258      N1260   1.157       .  T
C1261      C1262   1.404       .  A
C1261      C1266   1.408       .  A
C1262      C1263   1.407       .  A
C1262      H1267   1.085       .  S
C1263      C1264   1.418       .  A
C1263      C1270   1.444       .  S
C1264      C1265   1.407       .  A
C1265      C1266   1.397       .  A
C1265      H1268   1.084       .  S
C1266      C1269   1.440       .  S
C1269      N1271   1.156       .  T
C1270      N1272   1.157       .  T
C1273      C1274   1.416       .  A
C1273      C1278   1.414       .  A
C1274      C1275   1.400       .  A
C1274      H1279   1.085       .  S
C1275      C1276   1.404       .  A
C1275      C1282   1.444       .  S
C1276      C1277   1.410       .  A
C1277      C1278   1.405       .  A
C1277      H1280   1.085       .  S
C1278      C1281   1.443       .  S
C1281      N1283   1.157       .  T
C1285      C1286   1.400       .  A
C1285      C1290   1.408       .  A
C1286      C1287   1.389       .  A
C1286      H1291   1.086       .  S
C1287      C1288   1.411       .  A
C1287      C1294   1.445       .  S
C1288      C1289   1.404       .  A
C1289      C1290   1.397       .  A
C1289      H1292   1.085       .  S
C1290      C1293   1.444       .  S
C1293      N1295   1.157       .  T
C1294      N1296   1.157       .  T
C1297      C1298   1.416       .  A
C1297      C1302   1.411       .  A
C1298      C1299   1.405       .  A
C1298      H1303   1.084       .  S
C1299      C1300   1.402       .  A
C1299      C1306   1.443       .  S
C1300      C1301   1.407       .  A
C1301      C1302   1.398       .  A
C1301      H1304   1.086       .  S
C1302      C1305   1.444       .  S
C1305      N1307   1.157       .  T
C1306      N1308   1.157       .  T
C1309      C1310   1.405       .  A
C1309      C1314   1.418       .  A
C1310      C1311   1.399       .  A
C1310      H1315   1.085       .  S
C1311      C1312   1.411       .  A
C1311      C1318   1.442       .  S
C1312      C1313   1.404       .  A
C1313      C1314   1.404       .  A
C1313      H1316   1.085       .  S
C1314      C1317   1.444       .  S
C1317      N1319   1.157       .  T
C1318      N1320   1.156       .  T
O1321     Zr1357   2.422       .  S
O1321      C1332   1.289       .  A
O1322     Zr1356   2.393       .  S
O1322      C1333   1.285       .  A
O1323     Zr1329   2.391       .  S
O1323      C1334   1.285       .  A
O1324     Zr1329   2.397       .  S
O1324      C1335   1.285       .  A
O1325     Zr1359   2.492       .  S
O1325      C1335   1.301       .  A
O1326     Zr1358   2.504       .  S
O1326      C1334   1.304       .  A
O1327     Zr1329   2.438       .  S
O1327      C1333   1.292       .  A
O1328     Zr1329   2.459       .  S
O1328      C1332   1.295       .  A
Zr1329     O1330   2.337       .  S
Zr1329     O1331   2.326       .  S
Zr1329     O1339   2.324       .  S
Zr1329     O1337   2.333       .  S
O1330     Zr1356   2.357       .  S
O1330     Zr1359   2.349       .  S
O1331     Zr1357   2.346       .  S
O1331     Zr1358   2.344       .  S
C1332      C1972   1.480       .  S
C1333      C1948   1.462       .  S
C1334      C1933   1.499       .  S
C1335      C1960   1.473       .  S
H1336      O1337   0.964       .  S
O1337     Zr1356   2.306       .  S
O1337     Zr1358   2.334       .  S
H1338      O1339   0.963       .  S
O1339     Zr1357   2.314       .  S
O1339     Zr1359   2.352       .  S
O1340     Zr1356   2.392       .  S
O1340      C1363   1.284       .  A
O1341     Zr1357   2.411       .  S
O1341      C1364   1.287       .  A
O1342     Zr1358   2.368       .  S
O1342      C1365   1.280       .  A
O1343     Zr1359   2.449       .  S
O1343      C1366   1.297       .  A
O1344     Zr1359   2.399       .  S
O1344      C1367   1.286       .  A
O1345     Zr1358   2.394       .  S
O1345      C1368   1.287       .  A
O1346     Zr1360   2.371       .  S
O1346      C1369   1.276       .  A
O1347     Zr1360   2.390       .  S
O1347      C1370   1.283       .  A
O1348     Zr1358   2.509       .  S
O1348      C1369   1.303       .  A
O1349     Zr1359   2.501       .  S
O1349      C1370   1.302       .  A
O1350     Zr1356   2.572       .  S
O1350      C1365   1.318       .  A
O1351     Zr1357   2.426       .  S
O1351      C1368   1.290       .  A
O1352     Zr1357   2.488       .  S
O1352      C1367   1.300       .  A
O1353     Zr1356   2.468       .  S
O1353      C1366   1.299       .  A
O1354     Zr1360   2.462       .  S
O1354      C1363   1.298       .  A
O1355     Zr1360   2.483       .  S
O1355      C1364   1.299       .  A
Zr1356     O1362   2.323       .  S
Zr1356     O1374   2.374       .  S
Zr1357     O1361   2.333       .  S
Zr1357     O1372   2.354       .  S
Zr1358     O1362   2.325       .  S
Zr1358     O1372   2.349       .  S
Zr1359     O1361   2.341       .  S
Zr1359     O1374   2.347       .  S
Zr1360     O1361   2.325       .  S
Zr1360     O1362   2.345       .  S
Zr1360     O1374   2.339       .  S
Zr1360     O1372   2.330       .  S
C1363      C1849   1.474       .  S
C1364      C1873   1.487       .  S
C1365      C1900   1.509       .  S
C1366      C1837   1.502       .  S
C1367      C1921   1.473       .  S
C1368      C1861   1.467       .  S
C1369      C1885   1.477       .  S
C1370      C1909   1.487       .  S
H1371      O1372   0.965       .  S
H1373      O1374   0.966       .  S
C1375      C1765   1.486       .  S
C1375      C1376   1.401   1_655  A
C1375      C2040   1.393       .  A
C1376      C1825   1.480   1_455  S
C1377      C1813   1.504       .  S
C1377      C1378   1.448   1_565  A
C1378      C1789   1.569       .  S
C1378      C1379   1.460       .  A
C1379      C1780   1.463       .  S
C1380      C1804   1.516       .  S
C1380      C2035   1.393   1_545  A
C1381      C1382   1.393       .  A
C1381      C1386   1.387       .  A
C1382      C1383   1.401       .  A
C1382      H1387   1.084       .  S
C1383      C1777   1.479       .  S
C1383      C1384   1.409       .  A
C1384      C1385   1.403       .  A
C1384      H1388   1.083       .  S
C1385      C1756   1.473       .  S
C1385      C1386   1.392       .  A
C1386      H1389   1.085       .  S
C1390      C1741   1.502       .  S
C1390      C2051   1.413       .  A
C1390      C1395   1.418       .  A
C1391      C2050   1.413       .  A
C1391      C1392   1.413   1_565  A
C1391      H1396   1.083       .  S
C1392      C1957   1.494       .  S
C1392      C1393   1.394   1_545  A
C1393      C1394   1.394       .  A
C1393      H1397   1.085   1_565  S
C1394      C1816   1.485       .  S
C1394      C2055   1.413       .  A
C1395      C2054   1.413       .  A
C1395      H1398   1.083       .  S
C1399      C1969   1.495       .  S
C1399      C1400   1.408       .  A
C1399      C1404   1.402       .  A
C1400      C1401   1.409       .  A
C1400      H1405   1.083       .  S
C1401      C1801   1.512       .  S
C1401      C1402   1.416       .  A
C1402      C1403   1.419   1_545  A
C1402      H2066   1.081   1_545  S
C1403      C2389   1.503       .  S
C1403      C1404   1.403   1_565  A
C1404      H1407   1.083       .  S
H1406      C2062   1.081       .  S
C1408      C1717   1.498       .  S
C1408      C1413   1.402       .  A
C1409      C1410   1.411       .  A
C1409      H1414   1.083   1_655  S
C1410      C1876   1.482       .  S
C1410      C1411   1.392       .  A
C1411      C1412   1.395       .  A
C1411      H1415   1.085       .  S
C1412      C1828   1.473       .  S
C1413      H1416   1.083       .  S
C1417      C1924   1.499       .  S
C1417      C1418   1.413       .  A
C1417      C1422   1.409       .  A
C1418      C1419   1.410       .  A
C1418      H1423   1.082       .  S
C1419      C1792   1.500       .  S
C1419      C1420   1.406       .  A
C1420      C1421   1.400       .  A
C1420      H1424   1.082       .  S
C1421      C1708   1.491       .  S
C1421      C1422   1.402       .  A
C1422      H1425   1.083       .  S
C1426      C1912   1.500       .  S
C1426      C1427   1.418       .  A
C1426      C1431   1.410       .  A
C1427      C1428   1.408       .  A
C1427      H1432   1.083       .  S
C1428      C1768   1.484       .  S
C1428      C1429   1.391       .  A
C1429      C1430   1.390       .  A
C1429      H1433   1.085       .  S
C1430      C1693   1.472       .  S
C1430      C1431   1.405       .  A
C1431      H1434   1.084       .  S
O1435     Zr1471   2.399       .  S
O1435      C1446   1.285       .  A
O1436     Zr1470   2.460       .  S
O1436      C1447   1.296       .  A
O1437     Zr1443   2.380       .  S
O1437      C1448   1.283       .  A
O1438     Zr1443   2.399       .  S
O1438      C1449   1.283       .  A
O1439     Zr1473   2.493       .  S
O1439      C1449   1.301       .  A
O1440     Zr1472   2.507       .  S
O1440      C1448   1.305       .  A
O1441     Zr1443   2.409       .  S
O1441      C1447   1.285       .  A
O1442     Zr1443   2.442       .  S
O1442      C1446   1.292       .  A
Zr1443     O1444   2.330       .  S
Zr1443     O1445   2.328       .  S
Zr1443     O1453   2.323       .  S
Zr1443     O1451   2.343       .  S
O1444     Zr1470   2.321       .  S
O1444     Zr1473   2.329       .  S
O1445     Zr1471   2.319       .  S
O1445     Zr1472   2.349       .  S
C1446      C1753   1.462       .  S
C1447      C1648   1.462       .  S
C1448      C1720   1.504       .  S
C1449      C1660   1.479       .  S
H1450      O1451   0.963       .  S
O1451     Zr1470   2.349       .  S
O1451     Zr1472   2.325       .  S
H1452      O1453   0.965       .  S
O1453     Zr1471   2.366       .  S
O1453     Zr1473   2.349       .  S
O1454     Zr1470   2.431       .  S
O1454      C1477   1.291       .  A
O1455     Zr1471   2.387       .  S
O1455      C1478   1.284       .  A
O1456     Zr1472   2.431       .  S
O1456      C1479   1.293       .  A
O1457     Zr1473   2.419       .  S
O1457      C1480   1.288       .  A
O1458     Zr1473   2.411       .  S
O1458      C1481   1.290       .  A
O1459     Zr1472   2.343       .  S
O1459      C1482   1.276       .  A
O1460     Zr1474   2.398       .  S
O1460      C1483   1.285       .  A
O1461     Zr1474   2.395       .  S
O1461      C1484   1.285       .  A
O1462     Zr1472   2.510       .  S
O1462      C1483   1.304       .  A
O1463     Zr1473   2.479       .  S
O1463      C1484   1.299       .  A
O1464     Zr1470   2.399       .  S
O1464      C1479   1.284       .  A
O1465     Zr1471   2.575       .  S
O1465      C1482   1.317       .  A
O1466     Zr1471   2.487       .  S
O1466      C1481   1.303       .  A
O1467     Zr1470   2.479       .  S
O1467      C1480   1.299       .  A
O1468     Zr1474   2.467       .  S
O1468      C1477   1.298       .  A
O1469     Zr1474   2.473       .  S
O1469      C1478   1.298       .  A
Zr1470     O1476   2.356       .  S
Zr1470     O1488   2.342       .  S
Zr1471     O1475   2.365       .  S
Zr1471     O1486   2.320       .  S
Zr1472     O1476   2.332       .  S
Zr1472     O1486   2.331       .  S
Zr1473     O1475   2.352       .  S
Zr1473     O1488   2.339       .  S
Zr1474     O1475   2.329       .  S
Zr1474     O1476   2.329       .  S
Zr1474     O1488   2.346       .  S
Zr1474     O1486   2.335       .  S
C1477      C1672   1.504       .  S
C1478      C1696   1.487       .  S
C1479      C1681   1.480       .  S
C1480      C1624   1.481       .  S
C1481      C1705   1.487       .  S
C1482      C1744   1.521       .  S
C1483      C1732   1.491       .  S
C1484      C1633   1.486       .  S
H1485      O1486   0.963       .  S
H1487      O1488   0.966       .  S
C1489      C1897   1.511   1_554  S
C1489      C1490   1.422       .  A
C1489      C1494   1.415       .  A
C1490      C1491   1.412       .  A
C1490      H1495   1.083       .  S
C1491      C1492   1.391       .  A
C1492      C1493   1.399       .  A
C1493      C1612   1.489       .  S
C1493      C1494   1.412       .  A
C1494      H1497   1.083   1_554  S
C1498      C1609   1.485       .  S
C1498      C2159   1.403   1_545  A
C1499      C1549   1.469       .  S
C1499      C2158   1.403       .  A
C1499      C1500   1.400       .  A
C1500      C1597   1.488       .  S
C1501      C1585   1.494       .  S
C1501      C1502   1.421       .  A
C1502      C1573   1.475       .  S
C1502      C2163   1.423       .  A
C1503      C1564   1.498       .  S
C1503      C2162   1.423       .  A
C1504      C1684   1.457       .  S
C1504      C1505   1.385   1_554  A
C1504      C1509   1.395       .  A
C1505      C2166   1.388       .  A
C1505      H1510   1.086       .  S
C1506      C1945   1.463       .  S
C1506      C2165   1.388       .  A
C1506      C1507   1.401       .  A
C1507      C2168   1.410       .  A
C1507      H1511   1.083       .  S
C1508      C1576   1.485       .  S
C1508      C2167   1.410       .  A
C1508      C1509   1.407   1_556  A
C1509      H1512   1.083       .  S
C1513      C1645   1.484       .  S
C1513      C1518   1.409       .  A
C1514      C1515   1.389       .  A
C1514      H1519   1.084       .  S
C1515      C1888   1.471       .  S
C1515      C1516   1.404       .  A
C1516      C1517   1.414       .  A
C1516      H1520   1.083       .  S
C1517      C1588   1.498       .  S
C1518      H1521   1.081       .  S
C1522      C1621   1.519       .  S
C1522      C1523   1.418       .  A
C1522      C1527   1.418       .  A
C1523      C1524   1.408       .  A
C1523      H1528   1.081       .  S
C1524      C1840   1.490       .  S
C1524      C1525   1.401       .  A
C1525      C1526   1.401       .  A
C1525      H1529   1.084       .  S
C1526      C1561   1.488       .  S
C1526      C1527   1.406       .  A
C1527      H1530   1.080       .  S
C1531      C2596   1.488       .  S
C1531      C1532   1.420       .  A
C1531      C1536   1.398       .  A
C1532      C1533   1.416       .  A
C1532      H1537   1.083       .  S
C1533      C1669   1.492       .  S
C1533      C1534   1.398       .  A
C1534      C1535   1.391       .  A
C1534      H1538   1.085       .  S
C1535      C1552   1.466       .  S
C1535      C1536   1.392       .  A
C1536      H2199   1.085       .  S
H1539      C2196   1.085   1_545  S
C1540      C1852   1.464       .  S
C1540      C1541   1.392   1_556  A
C1540      C1545   1.393       .  A
C1541      C1542   1.400       .  A
C1541      H1546   1.083       .  S
C1542      C1636   1.496       .  S
C1542      C1543   1.419       .  A
C1543      C1544   1.416       .  A
C1543      H1547   1.082       .  S
C1544      C1600   1.496       .  S
C1544      C1545   1.398   1_554  A
C1545      H1548   1.083       .  S
C1549      C1550   1.404       .  A
C1549      C1554   1.403       .  A
C1550      C1551   1.393       .  A
C1550      H1555   1.085       .  S
C1551      C1552   1.406       .  A
C1551      C1558   1.444       .  S
C1552      C1553   1.405       .  A
C1553      C1554   1.390       .  A
C1553      H1556   1.085   1_556  S
C1554      C2217   1.441   1_556  S
C1557      C2214   1.441   1_554  S
C1557      N1559   1.157       .  T
C1558      N1560   1.157       .  T
C1561      C1562   1.405       .  A
C1561      C1566   1.410       .  A
C1562      C1563   1.407   1_556  A
C1562      H1567   1.084   1_556  S
C1563      C1564   1.413   1_554  A
C1563      C1570   1.442       .  S
C1564      C1565   1.405       .  A
C1565      C1566   1.401       .  A
C1565      H1568   1.085       .  S
C1566      C1569   1.444       .  S
C1569      N1571   1.157       .  T
C1570      N1572   1.157       .  T
C1573      C1574   1.397   1_556  A
C1573      C1578   1.408       .  A
C1574      C1575   1.394       .  A
C1574      H1579   1.085       .  S
C1575      C1576   1.417   1_554  A
C1575      C1582   1.444       .  S
C1576      C1577   1.407       .  A
C1577      C1578   1.396       .  A
C1577      H2240   1.084       .  S
C1578      C2241   1.443       .  S
H1580      C2237   1.084       .  S
C1581      C2238   1.443       .  S
C1581      N1583   1.157       .  T
C1582      N1584   1.157       .  T
C1585      C1590   1.410       .  A
C1586      C1587   1.404       .  A
C1586      H1591   1.084       .  S
C1587      C1588   1.419   1_554  A
C1587      C1594   1.444       .  S
C1589      C1590   1.400       .  A
C1589      H1592   1.084       .  S
C1590      C1593   1.442       .  S
C1593      N1595   1.157       .  T
C1594      N1596   1.157       .  T
C1597      C1598   1.393       .  A
C1597      C1602   1.409   1_556  A
C1598      C1599   1.395       .  A
C1598      H1603   1.085       .  S
C1599      C1600   1.423   1_556  A
C1599      C1606   1.441       .  S
C1600      C1601   1.407       .  A
C1601      C1602   1.403       .  A
C1601      H1604   1.084       .  S
C1602      C1605   1.443       .  S
C1605      N1607   1.157       .  T
C1606      N1608   1.156       .  T
C1609      C1614   1.407   1_556  A
C1610      C1611   1.406       .  A
C1610      H1615   1.084       .  S
C1611      C1618   1.443       .  S
C1612      C1613   1.406       .  A
C1613      C1614   1.394       .  A
C1613      H1616   1.085       .  S
C1614      C1617   1.445       .  S
C1617      N2279   1.157       .  T
C1618      N1620   1.157       .  T
N1619      C2277   1.157       .  T
C1621      C1622   1.415       .  A
C1621      C1626   1.426       .  A
C1622      C1623   1.405       .  A
C1622      H1627   1.081       .  S
C1623      C1624   1.405   1_556  A
C1623      C1630   1.445       .  S
C1624      C1625   1.401       .  A
C1625      C1626   1.408   1_554  A
C1625      H1628   1.085       .  S
C1626      C1629   1.444       .  S
C1629      N1631   1.158       .  T
C1630      N1632   1.157   1_556  T
C1633      C1634   1.407       .  A
C1633      C1638   1.406       .  A
C1634      C1635   1.398       .  A
C1634      H1639   1.081       .  S
C1635      C1636   1.411       .  A
C1635      C1642   1.444       .  S
C1636      C1637   1.414       .  A
C1637      C1638   1.404       .  A
C1637      H1640   1.083       .  S
C1638      C1641   1.442       .  S
C1641      N1643   1.157       .  T
C1642      N1644   1.157       .  T
C1645      C1646   1.399       .  A
C1645      C1650   1.421       .  A
C1646      C1647   1.387       .  A
C1646      H1651   1.083       .  S
C1647      C1648   1.408       .  A
C1647      C1654   1.439       .  S
C1648      C1649   1.399       .  A
C1649      C1650   1.401       .  A
C1649      H1652   1.085       .  S
C1650      C1653   1.445       .  S
C1653      N1655   1.157       .  T
C1654      N1656   1.155       .  T
C1657      C1658   1.413       .  A
C1657      C1662   1.411       .  A
C1658      C1659   1.409       .  A
C1658      H1663   1.084       .  S
C1659      C1660   1.407       .  A
C1659      C1666   1.443       .  S
C1660      C1661   1.406       .  A
C1661      C1662   1.402       .  A
C1661      H1664   1.085       .  S
C1662      C1665   1.444       .  S
C1665      N1667   1.157   1_554  T
C1666      N1668   1.157       .  T
C1669      C1670   1.406   1_556  A
C1669      C1674   1.407       .  A
C1670      C1671   1.398       .  A
C1670      H1675   1.086       .  S
C1671      C1672   1.419       .  A
C1671      C1678   1.445       .  S
C1672      C1673   1.417   1_554  A
C1673      C1674   1.410       .  A
C1673      H1676   1.084       .  S
C1674      C1677   1.443       .  S
C1677      N1679   1.157       .  T
C1678      N1680   1.158       .  T
C1681      C1682   1.408       .  A
C1681      C1686   1.422       .  A
C1682      C1683   1.393       .  A
C1682      H1687   1.084       .  S
C1683      C1684   1.404       .  A
C1683      C1690   1.444       .  S
C1684      C1685   1.395       .  A
C1685      C1686   1.390       .  A
C1685      H1688   1.086   1_554  S
C1686      C1689   1.446       .  S
C1689      N1691   1.158   1_554  T
C1690      N2352   1.157       .  T
N1692      C2350   1.157   1_545  T
C1693      C1694   1.405       .  A
C1693      C1698   1.401       .  A
C1694      C1695   1.398       .  A
C1694      H1699   1.084       .  S
C1695      C1696   1.412       .  A
C1695      C1702   1.442       .  S
C1696      C1697   1.415       .  A
C1697      C1698   1.395       .  A
C1697      H1700   1.084       .  S
C1698      C1701   1.444       .  S
C1701      N1703   1.157       .  T
C1702      N1704   1.157       .  T
C1705      C1706   1.408       .  A
C1705      C1710   1.411       .  A
C1706      C1707   1.399       .  A
C1706      H1711   1.085       .  S
C1707      C1708   1.411       .  A
C1707      C1714   1.444       .  S
C1708      C1709   1.409       .  A
C1709      C1710   1.404       .  A
C1709      H1712   1.085       .  S
C1710      C1713   1.442       .  S
C1713      N1715   1.156       .  T
C1714      N1716   1.157       .  T
C1717      C1718   1.415       .  A
C1717      C1722   1.408       .  A
C1718      C1719   1.410       .  A
C1718      H1723   1.084       .  S
C1719      C1720   1.412       .  A
C1719      C1726   1.441       .  S
C1720      C1721   1.416       .  A
C1721      C1722   1.397       .  A
C1721      H1724   1.084       .  S
C1722      C1725   1.445       .  S
C1725      N1727   1.157       .  T
C1726      N1728   1.157       .  T
C1729      C2063   1.503       .  S
C1729      C1730   1.418       .  A
C1729      C1734   1.412       .  A
C1730      C1731   1.413       .  A
C1730      H1735   1.084       .  S
C1731      C1732   1.406       .  A
C1731      C1738   1.442       .  S
C1732      C1733   1.409       .  A
C1733      C1734   1.398       .  A
C1733      H1736   1.084       .  S
C1734      C1737   1.445       .  S
C1737      N1739   1.157       .  T
C1738      N1740   1.157       .  T
C1741      C1742   1.416       .  A
C1741      C1746   1.404       .  A
C1742      C1743   1.426       .  A
C1742      H1747   1.084       .  S
C1743      C1744   1.413       .  A
C1743      C1750   1.438       .  S
C1744      C1745   1.420       .  A
C1745      C1746   1.397       .  A
C1745      H1748   1.085       .  S
C1746      C1749   1.447       .  S
C1749      N1751   1.157       .  T
C1750      N1752   1.157       .  T
C1753      C1754   1.402       .  A
C1753      C1758   1.405       .  A
C1754      C1755   1.397       .  A
C1754      H1759   1.085       .  S
C1755      C1756   1.413       .  A
C1755      C1762   1.444       .  S
C1756      C1757   1.404       .  A
C1757      C1758   1.390       .  A
C1757      H1760   1.085       .  S
C1758      C1761   1.440       .  S
C1761      N1763   1.155       .  T
C1762      N1764   1.157       .  T
C1765      C1766   1.397       .  A
C1765      C1770   1.412       .  A
C1766      C1767   1.395       .  A
C1766      H1771   1.085       .  S
C1767      C1768   1.419       .  A
C1767      C1774   1.445       .  S
C1768      C1769   1.401       .  A
C1769      C1770   1.401       .  A
C1769      H1772   1.084       .  S
C1770      C1773   1.442       .  S
C1773      N1775   1.157       .  T
C1774      N1776   1.157       .  T
C1777      C1778   1.408       .  A
C1777      C1782   1.416       .  A
C1778      C1779   1.396       .  A
C1778      H1783   1.083       .  S
C1779      C1780   1.406       .  A
C1779      C1786   1.443       .  S
C1780      C1781   1.398       .  A
C1781      C1782   1.390       .  A
C1785      N1787   1.156       .  T
C1786      N1788   1.157       .  T
C1789      C1790   1.416       .  A
C1789      C1794   1.421       .  A
C1790      C1791   1.398       .  A
C1790      H1795   1.059       .  S
C1791      C1792   1.410       .  A
C1791      C1798   1.448       .  S
C1792      C1793   1.406       .  A
C1793      C1794   1.410       .  A
C1793      H1796   1.084       .  S
C1794      C1797   1.442       .  S
C1797      N1799   1.158       .  T
C1798      N1800   1.157       .  T
C1801      C1802   1.410       .  A
C1801      C1806   1.417       .  A
C1802      C2463   1.406       .  A
C1802      H2467   1.084       .  S
C1803      C2462   1.406       .  A
C1803      C2464   1.412       .  A
C1803      C1810   1.440       .  S
C1804      C2463   1.412       .  A
C1804      C1805   1.408       .  A
C1805      C1806   1.412       .  A
C1805      H1808   1.084       .  S
C1806      C1809   1.443       .  S
H1807      C2462   1.084       .  S
C1809      N1811   1.157       .  T
C1810      N1812   1.157       .  T
C1813      C1814   1.404       .  A
C1813      C1818   1.413       .  A
C1814      C1815   1.396       .  A
C1814      H1819   1.081       .  S
C1815      C1816   1.409       .  A
C1815      C1822   1.445       .  S
C1816      C1817   1.409       .  A
C1817      C1818   1.412       .  A
C1817      H1820   1.084       .  S
C1818      C1821   1.442   1_565  S
C1821      N1823   1.157       .  T
C1822      N1824   1.157       .  T
C1825      C1826   1.402       .  A
C1825      C1830   1.407       .  A
C1826      C1827   1.395       .  A
C1826      H1831   1.085       .  S
C1827      C1828   1.410       .  A
C1827      C1834   1.444       .  S
C1828      C1829   1.404       .  A
C1829      C1830   1.389       .  A
C1829      H1832   1.085       .  S
C1830      C1833   1.442       .  S
C1833      N1835   1.157       .  T
C1834      N1836   1.157       .  T
C1837      C1838   1.412       .  A
C1837      C1842   1.420       .  A
C1838      C1839   1.406       .  A
C1838      H1843   1.084       .  S
C1839      C1840   1.410       .  A
C1839      C1846   1.443       .  S
C1840      C1841   1.402       .  A
C1841      C1842   1.405       .  A
C1841      H1844   1.085       .  S
C1842      C1845   1.443       .  S
C1845      N1847   1.157       .  T
C1846      N1848   1.157       .  T
C1849      C1850   1.402       .  A
C1849      C1854   1.422       .  A
C1850      C1851   1.391       .  A
C1850      H1855   1.085       .  S
C1851      C1852   1.407       .  A
C1851      C1858   1.443       .  S
C1852      C1853   1.395       .  A
C1853      C1854   1.394       .  A
C1853      H1856   1.085   1_556  S
C1854      C1857   1.444       .  S
C1857      N1859   1.158       .  T
C1858      N1860   1.157       .  T
C1861      C1862   1.407       .  A
C1861      C1866   1.413       .  A
C1862      C1863   1.389       .  A
C1862      H1867   1.085       .  S
C1863      C1864   1.403       .  A
C1863      C1870   1.443       .  S
C1864      C1865   1.401       .  A
C1865      C1866   1.387       .  A
C1865      H1868   1.085       .  S
C1866      C1869   1.446       .  S
C1869      N1871   1.158       .  T
C1873      C1874   1.405       .  A
C1873      C1878   1.416       .  A
C1874      C1875   1.406       .  A
C1874      H1879   1.085       .  S
C1875      C1876   1.412       .  A
C1875      C1882   1.443       .  S
C1876      C1877   1.401       .  A
C1877      C1878   1.402       .  A
C1877      H1880   1.085       .  S
C1878      C1881   1.444       .  S
C1881      N1883   1.157       .  T
C1885      C1886   1.407       .  A
C1885      C1890   1.412       .  A
C1886      C1887   1.407       .  A
C1886      H1891   1.084       .  S
C1887      C1888   1.409       .  A
C1888      C1889   1.394       .  A
C1889      C1890   1.391       .  A
C1889      H1892   1.086       .  S
C1890      C1893   1.432       .  S
C1893      N1895   1.152       .  T
C1894      N1896   1.157       .  T
C1897      C1898   1.396       .  A
C1897      C1902   1.422       .  A
C1898      C1899   1.397       .  A
C1898      H1903   1.085       .  S
C1899      C1900   1.426       .  A
C1899      C1906   1.440       .  S
C1900      C1901   1.411       .  A
C1901      C1902   1.423       .  A
C1901      H1904   1.083       .  S
C1902      C1905   1.442   1_556  S
C1905      N1907   1.157       .  T
C1906      N1908   1.156       .  T
C1909      C1910   1.407       .  A
C1909      C1914   1.408       .  A
C1910      C1911   1.396       .  A
C1910      H1915   1.086       .  S
C1911      C1912   1.413       .  A
C1911      C1918   1.446       .  S
C1912      C1913   1.415       .  A
C1913      C1914   1.414       .  A
C1913      H1916   1.084       .  S
C1914      C1917   1.442       .  S
C1917      N1919   1.157       .  T
C1918      N1920   1.157       .  T
C1921      C1922   1.404       .  A
C1921      C1926   1.408       .  A
C1922      C1923   1.407       .  A
C1922      H1927   1.085       .  S
C1923      C1924   1.418       .  A
C1923      C1930   1.444       .  S
C1924      C1925   1.407       .  A
C1925      C1926   1.397       .  A
C1925      H1928   1.084       .  S
C1926      C1929   1.440       .  S
C1929      N1931   1.156       .  T
C1930      N1932   1.157       .  T
C1933      C1934   1.416       .  A
C1933      C1938   1.414       .  A
C1934      C1935   1.400       .  A
C1934      H1939   1.085       .  S
C1935      C1936   1.404       .  A
C1935      C1942   1.444   1_545  S
C1936      C2191   1.488   1_545  S
C1936      C1937   1.410       .  A
C1937      C1938   1.405       .  A
C1937      H1940   1.085       .  S
C1938      C1941   1.443       .  S
C1941      N1943   1.157       .  T
C1942      N2604   1.157       .  T
N1944      C2602   1.157       .  T
C1945      C1946   1.400       .  A
C1945      C1950   1.408       .  A
C1946      C1947   1.389       .  A
C1946      H1951   1.086       .  S
C1947      C1948   1.411       .  A
C1947      C1954   1.445       .  S
C1948      C1949   1.404       .  A
C1949      C1950   1.397       .  A
C1949      H1952   1.085       .  S
C1950      C1953   1.444       .  S
C1953      N1955   1.157       .  T
C1954      N1956   1.157       .  T
C1957      C1958   1.416       .  A
C1957      C1962   1.411       .  A
C1958      C1959   1.405       .  A
C1958      H1963   1.084       .  S
C1959      C1960   1.402       .  A
C1959      C1966   1.443       .  S
C1960      C1961   1.407       .  A
C1961      C1962   1.398       .  A
C1961      H1964   1.086       .  S
C1962      C1965   1.444       .  S
C1965      N1967   1.157       .  T
C1966      N1968   1.157       .  T
C1969      C1970   1.405       .  A
C1969      C1974   1.418       .  A
C1970      C1971   1.399       .  A
C1970      H1975   1.085       .  S
C1971      C1972   1.411       .  A
C1971      C1978   1.442       .  S
C1972      C1973   1.404       .  A
C1973      C1974   1.404       .  A
C1973      H1976   1.085       .  S
C1974      C1977   1.444       .  S
C1977      N1979   1.157       .  T
C1978      N1980   1.156       .  T
O1981     Zr2017   2.422       .  S
O1981      C1992   1.289       .  A
O1982     Zr2016   2.393       .  S
O1982      C1993   1.285       .  A
O1983     Zr1989   2.391       .  S
O1983      C1994   1.285       .  A
O1984     Zr1989   2.397       .  S
O1984      C1995   1.285       .  A
O1985     Zr2019   2.492       .  S
O1985      C1995   1.301       .  A
O1986     Zr2018   2.504       .  S
O1986      C1994   1.304       .  A
O1987     Zr1989   2.438       .  S
O1987      C1993   1.292       .  A
O1988     Zr1989   2.459       .  S
O1988      C1992   1.295       .  A
Zr1989     O1990   2.337       .  S
Zr1989     O1991   2.326       .  S
Zr1989     O1999   2.324       .  S
Zr1989     O1997   2.333       .  S
O1990     Zr2016   2.357       .  S
O1990     Zr2019   2.349       .  S
O1991     Zr2017   2.346       .  S
O1991     Zr2018   2.344       .  S
C1992      C2632   1.480       .  S
C1993      C2608   1.462       .  S
C1994      C2593   1.499       .  S
C1995      C2620   1.473       .  S
H1996      O1997   0.964       .  S
O1997     Zr2016   2.306       .  S
O1997     Zr2018   2.334       .  S
H1998      O1999   0.963       .  S
O1999     Zr2017   2.314       .  S
O1999     Zr2019   2.352       .  S
O2000     Zr2016   2.392       .  S
O2000      C2023   1.284       .  A
O2001     Zr2017   2.411       .  S
O2001      C2024   1.287       .  A
O2002     Zr2018   2.368       .  S
O2002      C2025   1.280       .  A
O2003     Zr2019   2.449       .  S
O2003      C2026   1.297       .  A
O2004     Zr2019   2.399       .  S
O2004      C2027   1.286       .  A
O2005     Zr2018   2.394       .  S
O2005      C2028   1.287       .  A
O2006     Zr2020   2.371       .  S
O2006      C2029   1.276       .  A
O2007     Zr2020   2.390       .  S
O2007      C2030   1.283       .  A
O2008     Zr2018   2.509       .  S
O2008      C2029   1.303       .  A
O2009     Zr2019   2.501       .  S
O2009      C2030   1.302       .  A
O2010     Zr2016   2.572       .  S
O2010      C2025   1.318       .  A
O2011     Zr2017   2.426       .  S
O2011      C2028   1.290       .  A
O2012     Zr2017   2.488       .  S
O2012      C2027   1.300       .  A
O2013     Zr2016   2.468       .  S
O2013      C2026   1.299       .  A
O2014     Zr2020   2.462       .  S
O2014      C2023   1.298       .  A
O2015     Zr2020   2.483       .  S
O2015      C2024   1.299       .  A
Zr2016     O2022   2.323       .  S
Zr2016     O2034   2.374       .  S
Zr2017     O2021   2.333       .  S
Zr2017     O2032   2.354       .  S
Zr2018     O2022   2.325       .  S
Zr2018     O2032   2.349       .  S
Zr2019     O2021   2.341       .  S
Zr2019     O2034   2.347       .  S
Zr2020     O2021   2.325       .  S
Zr2020     O2022   2.345       .  S
Zr2020     O2034   2.339       .  S
Zr2020     O2032   2.330       .  S
C2023      C2509   1.474       .  S
C2024      C2533   1.487       .  S
C2025      C2560   1.509       .  S
C2026      C2497   1.502       .  S
C2027      C2581   1.473       .  S
C2028      C2521   1.467       .  S
C2029      C2545   1.477       .  S
C2030      C2569   1.487       .  S
H2031      O2032   0.965       .  S
H2033      O2034   0.966       .  S
C2035      C2425   1.486       .  S
C2035      C2036   1.401   1_655  A
C2036      C2485   1.480   1_455  S
C2037      C2473   1.504       .  S
C2037      C2038   1.448       .  A
C2038      C2449   1.569       .  S
C2038      C2039   1.460       .  A
C2039      C2440   1.463       .  S
C2040      C2464   1.516       .  S
C2041      C2042   1.393       .  A
C2041      C2046   1.387       .  A
C2042      C2043   1.401       .  A
C2042      H2047   1.084       .  S
C2043      C2437   1.479       .  S
C2043      C2044   1.409       .  A
C2044      C2045   1.403       .  A
C2044      H2048   1.083       .  S
C2045      C2416   1.473       .  S
C2045      C2046   1.392       .  A
C2046      H2049   1.085       .  S
C2050      C2401   1.502       .  S
C2050      C2055   1.418       .  A
C2051      C2052   1.413       .  A
C2051      H2056   1.083       .  S
C2052      C2617   1.494       .  S
C2052      C2053   1.394       .  A
C2053      C2054   1.394       .  A
C2053      H2057   1.085       .  S
C2054      C2476   1.485       .  S
C2055      H2058   1.083       .  S
C2059      C2629   1.495       .  S
C2059      C2060   1.408       .  A
C2059      C2064   1.402       .  A
C2060      C2061   1.409       .  A
C2060      H2065   1.083       .  S
C2061      C2461   1.512       .  S
C2061      C2062   1.416       .  A
C2062      C2063   1.419       .  A
C2063      C2064   1.403       .  A
C2064      H2067   1.083       .  S
C2068      C2377   1.498       .  S
C2068      C2073   1.402       .  A
C2069      C2070   1.411       .  A
C2069      H2074   1.083   1_655  S
C2070      C2536   1.482       .  S
C2070      C2071   1.392       .  A
C2071      C2072   1.395       .  A
C2071      H2075   1.085       .  S
C2072      C2488   1.473       .  S
C2073      H2076   1.083       .  S
C2077      C2584   1.499       .  S
C2077      C2078   1.413       .  A
C2077      C2082   1.409       .  A
C2078      C2079   1.410       .  A
C2078      H2083   1.082       .  S
C2079      C2452   1.500       .  S
C2079      C2080   1.406       .  A
C2080      C2081   1.400       .  A
C2080      H2084   1.082       .  S
C2081      C2368   1.491       .  S
C2081      C2082   1.402       .  A
C2082      H2085   1.083       .  S
C2086      C2572   1.500       .  S
C2086      C2087   1.418       .  A
C2086      C2091   1.410       .  A
C2087      C2088   1.408       .  A
C2087      H2092   1.083       .  S
C2088      C2428   1.484       .  S
C2088      C2089   1.391       .  A
C2089      C2090   1.390       .  A
C2089      H2093   1.085       .  S
C2090      C2353   1.472       .  S
C2090      C2091   1.405       .  A
C2091      H2094   1.084       .  S
O2095     Zr2131   2.399       .  S
O2095      C2106   1.285       .  A
O2096     Zr2130   2.460       .  S
O2096      C2107   1.296       .  A
O2097     Zr2103   2.380       .  S
O2097      C2108   1.283       .  A
O2098     Zr2103   2.399       .  S
O2098      C2109   1.283       .  A
O2099     Zr2133   2.493       .  S
O2099      C2109   1.301       .  A
O2100     Zr2132   2.507       .  S
O2100      C2108   1.305       .  A
O2101     Zr2103   2.409       .  S
O2101      C2107   1.285       .  A
O2102     Zr2103   2.442       .  S
O2102      C2106   1.292       .  A
Zr2103     O2104   2.330       .  S
Zr2103     O2105   2.328       .  S
Zr2103     O2113   2.323       .  S
Zr2103     O2111   2.343       .  S
O2104     Zr2130   2.321       .  S
O2104     Zr2133   2.329       .  S
O2105     Zr2131   2.319       .  S
O2105     Zr2132   2.349       .  S
C2106      C2413   1.462       .  S
C2107      C2308   1.462       .  S
C2108      C2380   1.504       .  S
C2109      C2320   1.479       .  S
H2110      O2111   0.963       .  S
O2111     Zr2130   2.349       .  S
O2111     Zr2132   2.325       .  S
H2112      O2113   0.965       .  S
O2113     Zr2131   2.366       .  S
O2113     Zr2133   2.349       .  S
O2114     Zr2130   2.431       .  S
O2114      C2137   1.291       .  A
O2115     Zr2131   2.387       .  S
O2115      C2138   1.284       .  A
O2116     Zr2132   2.431       .  S
O2116      C2139   1.293       .  A
O2117     Zr2133   2.419       .  S
O2117      C2140   1.288       .  A
O2118     Zr2133   2.411       .  S
O2118      C2141   1.290       .  A
O2119     Zr2132   2.343       .  S
O2119      C2142   1.276       .  A
O2120     Zr2134   2.398       .  S
O2120      C2143   1.285       .  A
O2121     Zr2134   2.395       .  S
O2121      C2144   1.285       .  A
O2122     Zr2132   2.510       .  S
O2122      C2143   1.304       .  A
O2123     Zr2133   2.479       .  S
O2123      C2144   1.299       .  A
O2124     Zr2130   2.399       .  S
O2124      C2139   1.284       .  A
O2125     Zr2131   2.575       .  S
O2125      C2142   1.317       .  A
O2126     Zr2131   2.487       .  S
O2126      C2141   1.303       .  A
O2127     Zr2130   2.479       .  S
O2127      C2140   1.299       .  A
O2128     Zr2134   2.467       .  S
O2128      C2137   1.298       .  A
O2129     Zr2134   2.473       .  S
O2129      C2138   1.298       .  A
Zr2130     O2136   2.356       .  S
Zr2130     O2148   2.342       .  S
Zr2131     O2135   2.365       .  S
Zr2131     O2146   2.320       .  S
Zr2132     O2136   2.332       .  S
Zr2132     O2146   2.331       .  S
Zr2133     O2135   2.352       .  S
Zr2133     O2148   2.339       .  S
Zr2134     O2135   2.329       .  S
Zr2134     O2136   2.329       .  S
Zr2134     O2148   2.346       .  S
Zr2134     O2146   2.335       .  S
C2137      C2332   1.504       .  S
C2138      C2356   1.487       .  S
C2139      C2341   1.480       .  S
C2140      C2284   1.481       .  S
C2141      C2365   1.487       .  S
C2142      C2404   1.521       .  S
C2143      C2392   1.491       .  S
C2144      C2293   1.486       .  S
H2145      O2146   0.963       .  S
H2147      O2148   0.966       .  S
C2149      C2557   1.511   1_554  S
C2149      C2150   1.422       .  A
C2149      C2154   1.415       .  A
C2150      C2151   1.412       .  A
C2150      H2155   1.083       .  S
C2151      C2152   1.391       .  A
C2152      C2153   1.399       .  A
C2153      C2272   1.489       .  S
C2153      C2154   1.412       .  A
C2154      H2157   1.083   1_554  S
C2158      C2269   1.485       .  S
C2159      C2209   1.469       .  S
C2159      C2160   1.400       .  A
C2160      C2257   1.488       .  S
C2161      C2245   1.494       .  S
C2161      C2162   1.421   1_565  A
C2162      C2233   1.475       .  S
C2163      C2224   1.498       .  S
C2164      C2344   1.457       .  S
C2164      C2165   1.385   1_564  A
C2164      C2169   1.395       .  A
C2165      H2170   1.086   1_545  S
C2166      C2605   1.463       .  S
C2166      C2167   1.401       .  A
C2167      H2171   1.083       .  S
C2168      C2236   1.485       .  S
C2168      C2169   1.407   1_546  A
C2169      H2172   1.083       .  S
C2173      C2305   1.484       .  S
C2173      C2178   1.409       .  A
C2174      C2175   1.389       .  A
C2174      H2179   1.084       .  S
C2175      C2548   1.471       .  S
C2175      C2176   1.404       .  A
C2176      C2177   1.414       .  A
C2176      H2180   1.083       .  S
C2177      C2248   1.498       .  S
C2178      H2181   1.081       .  S
C2182      C2281   1.519       .  S
C2182      C2183   1.418       .  A
C2182      C2187   1.418       .  A
C2183      C2184   1.408       .  A
C2183      H2188   1.081       .  S
C2184      C2500   1.490       .  S
C2184      C2185   1.401       .  A
C2185      C2186   1.401       .  A
C2185      H2189   1.084       .  S
C2186      C2221   1.488       .  S
C2186      C2187   1.406       .  A
C2187      H2190   1.080       .  S
C2191      C2192   1.420       .  A
C2191      C2196   1.398       .  A
C2192      C2193   1.416       .  A
C2192      H2197   1.083       .  S
C2193      C2329   1.492       .  S
C2193      C2194   1.398       .  A
C2194      C2195   1.391       .  A
C2194      H2198   1.085       .  S
C2195      C2212   1.466       .  S
C2195      C2196   1.392       .  A
C2200      C2512   1.464       .  S
C2200      C2201   1.392   1_556  A
C2200      C2205   1.393       .  A
C2201      C2202   1.400       .  A
C2201      H2206   1.083       .  S
C2202      C2296   1.496       .  S
C2202      C2203   1.419       .  A
C2203      C2204   1.416       .  A
C2203      H2207   1.082       .  S
C2204      C2260   1.496       .  S
C2204      C2205   1.398   1_554  A
C2205      H2208   1.083       .  S
C2209      C2210   1.404       .  A
C2209      C2214   1.403       .  A
C2210      C2211   1.393       .  A
C2210      H2215   1.085       .  S
C2211      C2212   1.406       .  A
C2211      C2218   1.444       .  S
C2212      C2213   1.405       .  A
C2213      C2214   1.390       .  A
C2213      H2216   1.085   1_556  S
C2217      N2219   1.157       .  T
C2218      N2220   1.157       .  T
C2221      C2222   1.405       .  A
C2221      C2226   1.410       .  A
C2222      C2223   1.407   1_556  A
C2222      H2227   1.084   1_556  S
C2223      C2224   1.413   1_554  A
C2223      C2230   1.442       .  S
C2224      C2225   1.405       .  A
C2225      C2226   1.401       .  A
C2225      H2228   1.085       .  S
C2226      C2229   1.444       .  S
C2229      N2231   1.157       .  T
C2230      N2232   1.157       .  T
C2233      C2234   1.397   1_556  A
C2233      C2238   1.408       .  A
C2234      C2235   1.394       .  A
C2234      H2239   1.085   1_545  S
C2235      C2236   1.417   1_554  A
C2235      C2242   1.444       .  S
C2236      C2237   1.407       .  A
C2237      C2238   1.396       .  A
C2241      N2243   1.157       .  T
C2242      N2244   1.157       .  T
C2245      C2250   1.410       .  A
C2246      C2247   1.404       .  A
C2246      H2251   1.084       .  S
C2247      C2248   1.419   1_554  A
C2247      C2254   1.444       .  S
C2249      C2250   1.400       .  A
C2249      H2252   1.084       .  S
C2250      C2253   1.442       .  S
C2253      N2255   1.157       .  T
C2254      N2256   1.157       .  T
C2257      C2258   1.393       .  A
C2257      C2262   1.409   1_556  A
C2258      C2259   1.395       .  A
C2258      H2263   1.085       .  S
C2259      C2260   1.423   1_556  A
C2259      C2266   1.441       .  S
C2260      C2261   1.407       .  A
C2261      C2262   1.403       .  A
C2261      H2264   1.084       .  S
C2262      C2265   1.443       .  S
C2265      N2267   1.157       .  T
C2266      N2268   1.156       .  T
C2269      C2274   1.407   1_556  A
C2270      C2271   1.406       .  A
C2270      H2275   1.084       .  S
C2271      C2278   1.443       .  S
C2272      C2273   1.406       .  A
C2273      C2274   1.394       .  A
C2273      H2276   1.085       .  S
C2274      C2277   1.445       .  S
C2278      N2280   1.157       .  T
C2281      C2282   1.415       .  A
C2281      C2286   1.426       .  A
C2282      C2283   1.405       .  A
C2282      H2287   1.081       .  S
C2283      C2284   1.405   1_556  A
C2283      C2290   1.445       .  S
C2284      C2285   1.401       .  A
C2285      C2286   1.408   1_554  A
C2285      H2288   1.085       .  S
C2286      C2289   1.444       .  S
C2289      N2291   1.158       .  T
C2290      N2292   1.157   1_556  T
C2293      C2294   1.407       .  A
C2293      C2298   1.406       .  A
C2294      C2295   1.398       .  A
C2294      H2299   1.081       .  S
C2295      C2296   1.411       .  A
C2295      C2302   1.444       .  S
C2296      C2297   1.414       .  A
C2297      C2298   1.404       .  A
C2297      H2300   1.083       .  S
C2298      C2301   1.442       .  S
C2301      N2303   1.157       .  T
C2302      N2304   1.157       .  T
C2305      C2306   1.399       .  A
C2305      C2310   1.421       .  A
C2306      C2307   1.387       .  A
C2306      H2311   1.083       .  S
C2307      C2308   1.408       .  A
C2307      C2314   1.439       .  S
C2308      C2309   1.399       .  A
C2309      C2310   1.401       .  A
C2309      H2312   1.085       .  S
C2310      C2313   1.445       .  S
C2313      N2315   1.157       .  T
C2314      N2316   1.155       .  T
C2317      C2318   1.413       .  A
C2317      C2322   1.411       .  A
C2318      C2319   1.409       .  A
C2318      H2323   1.084       .  S
C2319      C2320   1.407       .  A
C2319      C2326   1.443       .  S
C2320      C2321   1.406       .  A
C2321      C2322   1.402       .  A
C2321      H2324   1.085       .  S
C2322      C2325   1.444       .  S
C2325      N2327   1.157   1_554  T
C2326      N2328   1.157       .  T
C2329      C2330   1.406   1_556  A
C2329      C2334   1.407       .  A
C2330      C2331   1.398       .  A
C2330      H2335   1.086       .  S
C2331      C2332   1.419       .  A
C2331      C2338   1.445       .  S
C2332      C2333   1.417   1_554  A
C2333      C2334   1.410       .  A
C2333      H2336   1.084       .  S
C2334      C2337   1.443       .  S
C2337      N2339   1.157       .  T
C2338      N2340   1.158       .  T
C2341      C2342   1.408       .  A
C2341      C2346   1.422       .  A
C2342      C2343   1.393       .  A
C2342      H2347   1.084       .  S
C2343      C2344   1.404       .  A
C2343      C2350   1.444       .  S
C2344      C2345   1.395       .  A
C2345      C2346   1.390       .  A
C2345      H2348   1.086   1_554  S
C2346      C2349   1.446       .  S
C2349      N2351   1.158   1_554  T
C2353      C2354   1.405       .  A
C2353      C2358   1.401       .  A
C2354      C2355   1.398       .  A
C2354      H2359   1.084       .  S
C2355      C2356   1.412       .  A
C2355      C2362   1.442       .  S
C2356      C2357   1.415       .  A
C2357      C2358   1.395       .  A
C2357      H2360   1.084       .  S
C2358      C2361   1.444       .  S
C2361      N2363   1.157       .  T
C2362      N2364   1.157       .  T
C2365      C2366   1.408       .  A
C2365      C2370   1.411       .  A
C2366      C2367   1.399       .  A
C2366      H2371   1.085       .  S
C2367      C2368   1.411       .  A
C2367      C2374   1.444       .  S
C2368      C2369   1.409       .  A
C2369      C2370   1.404       .  A
C2369      H2372   1.085       .  S
C2370      C2373   1.442       .  S
C2373      N2375   1.156       .  T
C2374      N2376   1.157       .  T
C2377      C2378   1.415       .  A
C2377      C2382   1.408       .  A
C2378      C2379   1.410       .  A
C2378      H2383   1.084       .  S
C2379      C2380   1.412       .  A
C2379      C2386   1.441       .  S
C2380      C2381   1.416       .  A
C2381      C2382   1.397       .  A
C2381      H2384   1.084       .  S
C2382      C2385   1.445       .  S
C2385      N2387   1.157       .  T
C2386      N2388   1.157       .  T
C2389      C2390   1.418       .  A
C2389      C2394   1.412       .  A
C2390      C2391   1.413       .  A
C2390      H2395   1.084   1_565  S
C2391      C2392   1.406       .  A
C2391      C2398   1.442       .  S
C2392      C2393   1.409       .  A
C2393      C2394   1.398       .  A
C2393      H2396   1.084       .  S
C2394      C2397   1.445       .  S
C2397      N2399   1.157       .  T
C2398      N2400   1.157       .  T
C2401      C2402   1.416       .  A
C2401      C2406   1.404       .  A
C2402      C2403   1.426       .  A
C2402      H2407   1.084       .  S
C2403      C2404   1.413       .  A
C2403      C2410   1.438       .  S
C2404      C2405   1.420       .  A
C2405      C2406   1.397       .  A
C2405      H2408   1.085       .  S
C2406      C2409   1.447       .  S
C2409      N2411   1.157       .  T
C2410      N2412   1.157       .  T
C2413      C2414   1.402       .  A
C2413      C2418   1.405       .  A
C2414      C2415   1.397       .  A
C2414      H2419   1.085       .  S
C2415      C2416   1.413       .  A
C2415      C2422   1.444       .  S
C2416      C2417   1.404       .  A
C2417      C2418   1.390       .  A
C2417      H2420   1.085       .  S
C2418      C2421   1.440       .  S
C2421      N2423   1.155       .  T
C2422      N2424   1.157       .  T
C2425      C2426   1.397       .  A
C2425      C2430   1.412       .  A
C2426      C2427   1.395       .  A
C2426      H2431   1.085       .  S
C2427      C2428   1.419       .  A
C2427      C2434   1.445       .  S
C2428      C2429   1.401       .  A
C2429      C2430   1.401       .  A
C2429      H2432   1.084       .  S
C2430      C2433   1.442       .  S
C2433      N2435   1.157       .  T
C2434      N2436   1.157       .  T
C2437      C2438   1.408       .  A
C2437      C2442   1.416       .  A
C2438      C2439   1.396       .  A
C2438      H2443   1.083       .  S
C2439      C2440   1.406       .  A
C2439      C2446   1.443       .  S
C2440      C2441   1.398       .  A
C2441      C2442   1.390       .  A
C2445      N2447   1.156       .  T
C2446      N2448   1.157       .  T
C2449      C2450   1.416       .  A
C2449      C2454   1.421       .  A
C2450      C2451   1.398       .  A
C2450      H2455   1.059       .  S
C2451      C2452   1.410       .  A
C2451      C2458   1.448       .  S
C2452      C2453   1.406       .  A
C2453      C2454   1.410       .  A
C2453      H2456   1.084       .  S
C2454      C2457   1.442       .  S
C2457      N2459   1.158       .  T
C2458      N2460   1.157       .  T
C2461      C2462   1.410       .  A
C2461      C2466   1.417       .  A
C2463      C2470   1.440       .  S
C2464      C2465   1.408       .  A
C2465      C2466   1.412       .  A
C2465      H2468   1.084       .  S
C2466      C2469   1.443       .  S
C2469      N2471   1.157       .  T
C2470      N2472   1.157       .  T
C2473      C2474   1.404       .  A
C2473      C2478   1.413       .  A
C2474      C2475   1.396       .  A
C2474      H2479   1.081       .  S
C2475      C2476   1.409       .  A
C2475      C2482   1.445       .  S
C2476      C2477   1.409       .  A
C2477      C2478   1.412       .  A
C2477      H2480   1.084       .  S
C2478      C2481   1.442       .  S
C2481      N2483   1.157       .  T
C2482      N2484   1.157       .  T
C2485      C2486   1.402       .  A
C2485      C2490   1.407       .  A
C2486      C2487   1.395       .  A
C2486      H2491   1.085       .  S
C2487      C2488   1.410       .  A
C2487      C2494   1.444       .  S
C2488      C2489   1.404       .  A
C2489      C2490   1.389       .  A
C2489      H2492   1.085       .  S
C2490      C2493   1.442       .  S
C2493      N2495   1.157       .  T
C2494      N2496   1.157       .  T
C2497      C2498   1.412       .  A
C2497      C2502   1.420       .  A
C2498      C2499   1.406       .  A
C2498      H2503   1.084       .  S
C2499      C2500   1.410       .  A
C2499      C2506   1.443       .  S
C2500      C2501   1.402       .  A
C2501      C2502   1.405       .  A
C2501      H2504   1.085       .  S
C2502      C2505   1.443       .  S
C2505      N2507   1.157       .  T
C2506      N2508   1.157       .  T
C2509      C2510   1.402       .  A
C2509      C2514   1.422       .  A
C2510      C2511   1.391       .  A
C2510      H2515   1.085       .  S
C2511      C2512   1.407       .  A
C2511      C2518   1.443       .  S
C2512      C2513   1.395       .  A
C2513      C2514   1.394       .  A
C2513      H2516   1.085   1_556  S
C2514      C2517   1.444       .  S
C2517      N2519   1.158       .  T
C2518      N2520   1.157       .  T
C2521      C2522   1.407       .  A
C2521      C2526   1.413       .  A
C2522      C2523   1.389       .  A
C2522      H2527   1.085       .  S
C2523      C2524   1.403       .  A
C2523      C2530   1.443       .  S
C2524      C2525   1.401       .  A
C2525      C2526   1.387       .  A
C2525      H2528   1.085       .  S
C2526      C2529   1.446       .  S
C2529      N2531   1.158       .  T
C2533      C2534   1.405       .  A
C2533      C2538   1.416       .  A
C2534      C2535   1.406       .  A
C2534      H2539   1.085       .  S
C2535      C2536   1.412       .  A
C2535      C2542   1.443       .  S
C2536      C2537   1.401       .  A
C2537      C2538   1.402       .  A
C2537      H2540   1.085       .  S
C2538      C2541   1.444       .  S
C2541      N2543   1.157       .  T
C2545      C2546   1.407       .  A
C2545      C2550   1.412       .  A
C2546      C2547   1.407       .  A
C2546      H2551   1.084       .  S
C2547      C2548   1.409       .  A
C2548      C2549   1.394       .  A
C2549      C2550   1.391       .  A
C2549      H2552   1.086       .  S
C2550      C2553   1.432       .  S
C2553      N2555   1.152       .  T
C2554      N2556   1.157       .  T
C2557      C2558   1.396       .  A
C2557      C2562   1.422       .  A
C2558      C2559   1.397       .  A
C2558      H2563   1.085       .  S
C2559      C2560   1.426       .  A
C2559      C2566   1.440       .  S
C2560      C2561   1.411       .  A
C2561      C2562   1.423       .  A
C2561      H2564   1.083       .  S
C2562      C2565   1.442   1_556  S
C2565      N2567   1.157       .  T
C2566      N2568   1.156       .  T
C2569      C2570   1.407       .  A
C2569      C2574   1.408       .  A
C2570      C2571   1.396       .  A
C2570      H2575   1.086       .  S
C2571      C2572   1.413       .  A
C2571      C2578   1.446       .  S
C2572      C2573   1.415       .  A
C2573      C2574   1.414       .  A
C2573      H2576   1.084       .  S
C2574      C2577   1.442       .  S
C2577      N2579   1.157       .  T
C2578      N2580   1.157       .  T
C2581      C2582   1.404       .  A
C2581      C2586   1.408       .  A
C2582      C2583   1.407       .  A
C2582      H2587   1.085       .  S
C2583      C2584   1.418       .  A
C2583      C2590   1.444       .  S
C2584      C2585   1.407       .  A
C2585      C2586   1.397       .  A
C2585      H2588   1.084       .  S
C2586      C2589   1.440       .  S
C2589      N2591   1.156       .  T
C2590      N2592   1.157       .  T
C2593      C2594   1.416       .  A
C2593      C2598   1.414       .  A
C2594      C2595   1.400       .  A
C2594      H2599   1.085       .  S
C2595      C2596   1.404       .  A
C2595      C2602   1.444       .  S
C2596      C2597   1.410       .  A
C2597      C2598   1.405       .  A
C2597      H2600   1.085       .  S
C2598      C2601   1.443       .  S
C2601      N2603   1.157       .  T
C2605      C2606   1.400       .  A
C2605      C2610   1.408       .  A
C2606      C2607   1.389       .  A
C2606      H2611   1.086       .  S
C2607      C2608   1.411       .  A
C2607      C2614   1.445       .  S
C2608      C2609   1.404       .  A
C2609      C2610   1.397       .  A
C2609      H2612   1.085       .  S
C2610      C2613   1.444       .  S
C2613      N2615   1.157       .  T
C2614      N2616   1.157       .  T
C2617      C2618   1.416       .  A
C2617      C2622   1.411       .  A
C2618      C2619   1.405       .  A
C2618      H2623   1.084       .  S
C2619      C2620   1.402       .  A
C2619      C2626   1.443       .  S
C2620      C2621   1.407       .  A
C2621      C2622   1.398       .  A
C2621      H2624   1.086       .  S
C2622      C2625   1.444       .  S
C2625      N2627   1.157       .  T
C2626      N2628   1.157       .  T
C2629      C2630   1.405       .  A
C2629      C2634   1.418       .  A
C2630      C2631   1.399       .  A
C2630      H2635   1.085       .  S
C2631      C2632   1.411       .  A
C2631      C2638   1.442       .  S
C2632      C2633   1.404       .  A
C2633      C2634   1.404       .  A
C2633      H2636   1.085       .  S
C2634      C2637   1.444       .  S
C2637      N2639   1.157       .  T
C2638      N2640   1.156       .  T
