geometry optimzed in LAMMPS
_audit_creation_date              2020-11-30 
_audit_creation_method            'lammps2cif' 
_symmetry_space_group_name_H-M    'P1' 
_symmetry_Int_Tables_number       1 
_symmetry_cell_setting            triclinic 
loop_ 
_symmetry_equiv_pos_as_xyz 
  x,y,z 
_cell_length_a                    25.47003705 
_cell_length_b                    25.466373077237648 
_cell_length_c                    25.4634469233373 
_cell_angle_alpha                 89.79549593504949 
_cell_angle_beta                  90.20700080030629 
_cell_angle_gamma                 89.72359390401596 
loop_ 
_atom_site_label 
_atom_site_type_symbol 
_atom_site_fract_x 
_atom_site_fract_y 
_atom_site_fract_z 
_atom_site_charge 
C1          C  0.13068554  0.72821179  0.95535450     0.79100
N2          N  0.15597635  0.72899952  0.00181458    -0.79200
C3          C  0.12927720  0.72683010  0.04740984     0.81500
N4          N  0.07571222  0.72458624  0.04680162    -0.79100
C5          C  0.04887110  0.72459936  0.00023533     0.81600
N6          N  0.07685371  0.72581014  0.95435264    -0.80900
C7          C  0.37515097  0.52747814  0.00262285     0.79100
N8          N  0.36186049  0.54958347  0.95571373    -0.79200
C9          C  0.33277168  0.59413827  0.95443595     0.81500
N10         N  0.31749786  0.61651527  0.00035732    -0.79100
C11         C  0.32951014  0.59397621  0.04736496     0.81600
N12         N  0.35881719  0.54950479  0.04837658    -0.80900
C13         C  0.90643867  0.21197307  0.04500288     0.79100
N14         N  0.96029393  0.21406952  0.04595288    -0.79200
C15         C  0.98828165  0.21407327  0.00003976     0.81500
N16         N  0.96143532  0.21301824  0.95352032    -0.79100
C17         C  0.90787397  0.21081635  0.95299282     0.81600
N18         N  0.88115301  0.21002891  0.99859557    -0.80900
C19         C  0.66023530  0.40920366  0.99816243     0.79100
N20         N  0.67637652  0.38720212  0.95236952    -0.79200
C21         C  0.70657322  0.34339255  0.95325804     0.81500
N22         N  0.71986512  0.32148993  0.00020233    -0.79100
C23         C  0.70489123  0.34392240  0.04618444     0.81600
N24         N  0.67468671  0.38776479  0.04504450    -0.80900
C25         C  0.77954194  0.92407176  0.11093734     0.79100
N26         N  0.77717220  0.92332924  0.05721535    -0.79200
C27         C  0.77520039  0.96921469  0.02922890     0.81500
N28         N  0.77431986  0.01574520  0.05603216    -0.79100
C29         C  0.77654538  0.01620630  0.10974056     0.81600
N30         N  0.77953549  0.97039981  0.13639930    -0.80900
C31         C  0.69533766  0.97250695  0.41463796     0.79100
N32         N  0.68526939  0.01786500  0.38820687    -0.79200
C33         C  0.66798506  0.01761393  0.33779700     0.81500
N34         N  0.66241056  0.97048505  0.31289844    -0.79100
C35         C  0.66848448  0.92433992  0.33985946     0.81600
N36         N  0.68568736  0.92617336  0.39032315    -0.80900
C37         C  0.25798919  0.01388075  0.88958392     0.79100
N38         N  0.25709521  0.96740085  0.86440637    -0.79200
C39         C  0.25915627  0.92167778  0.89133038     0.81500
N40         N  0.26142443  0.92239276  0.94502062    -0.79100
C41         C  0.26128932  0.96906086  0.97159094     0.81600
N42         N  0.26017753  0.01485100  0.94334524    -0.80900
C43         C  0.34134828  0.96670391  0.58454144     0.79100
N44         N  0.35073329  0.92098486  0.61057195    -0.79200
C45         C  0.36795361  0.92055807  0.66097458     0.81500
N46         N  0.37404156  0.96733486  0.68637228    -0.79100
C47         C  0.36844432  0.01381825  0.65996115     0.81600
N48         N  0.35138136  0.01270660  0.60939392    -0.80900
C49         C  0.90920269  0.72793330  0.04684165     0.79100
N50         N  0.96285601  0.72528320  0.04655589    -0.79200
C51         C  0.98977255  0.72469214  0.00013901     0.81500
N52         N  0.96186290  0.72547223  0.95410430    -0.79100
C53         C  0.90809182  0.72802611  0.95469249     0.81600
N54         N  0.88260578  0.72962691  0.00096481    -0.80900
C55         C  0.60234644  0.64472404  0.00136079     0.79100
N56         N  0.62762542  0.63469532  0.95558687    -0.79200
C57         C  0.67839431  0.61824286  0.95490114     0.81500
N58         N  0.70456281  0.61326180  0.00156650    -0.79100
C59         C  0.67882257  0.61937196  0.04815130     0.81600
N60         N  0.62816073  0.63593234  0.04733259    -0.80900
C61         C  0.12809707  0.21098572  0.95354997     0.79100
N62         N  0.07442189  0.21379311  0.95373201    -0.79200
C63         C  0.04738183  0.21367921  0.00010757     0.81500
N64         N  0.07516621  0.21187538  0.04615891    -0.79100
C65         C  0.12889488  0.20891214  0.04566616     0.81600
N66         N  0.15453353  0.20817887  0.99946332    -0.80900
C67         C  0.43322824  0.29208912  0.99845797     0.79100
N68         N  0.40860524  0.30232572  0.04449655    -0.79200
C69         C  0.35819844  0.31971539  0.04582921     0.81500
N70         N  0.33155703  0.32539833  0.99946287    -0.79100
C71         C  0.35673955  0.31920327  0.95255969     0.81600
N72         N  0.40713895  0.30176255  0.95281169    -0.80900
C73         C  0.77833114  0.92343873  0.88860213     0.79100
N74         N  0.77606846  0.92278557  0.94246694    -0.79200
C75         C  0.77532706  0.96887799  0.97017215     0.81500
N76         N  0.77573205  0.01522877  0.94307551    -0.79100
C77         C  0.77806783  0.01548056  0.88953078     0.81600
N78         N  0.77966775  0.96974036  0.86305651    -0.74900
C79         C  0.57852405  0.96894581  0.64179386     0.79100
N80         N  0.60013262  0.01495612  0.65780560    -0.79200
C81         C  0.64395705  0.01449212  0.68794053     0.81500
N82         N  0.66627696  0.96772018  0.70130719    -0.79100
C83         C  0.64430447  0.92151823  0.68643230     0.81600
N84         N  0.60041606  0.92225826  0.65629575    -0.80900
C85         C  0.25748025  0.01500611  0.11223684     0.79100
N86         N  0.25733762  0.96871305  0.13785288    -0.79200
C87         C  0.25992333  0.92298240  0.11142885     0.81500
N88         N  0.26193398  0.92322665  0.05786547    -0.79100
C89         C  0.26128732  0.96954484  0.03068851     0.81600
N90         N  0.25967810  0.01564576  0.05835117    -0.80900
C91         C  0.45833957  0.96902289  0.35893219     0.79100
N92         N  0.43700772  0.92307815  0.34229779    -0.79200
C93         C  0.39290205  0.92371458  0.31249782     0.81500
N94         N  0.36999332  0.97053458  0.30033024    -0.79100
C95         C  0.39167498  0.01663055  0.31593241     0.81600
N96         N  0.43589943  0.01573324  0.34547919    -0.80900
C97         C  0.97141353  0.07833095  0.75994842     0.79100
N98         N  0.97200819  0.02476155  0.75814614    -0.79200
C99         C  0.01855433  0.99789856  0.75805950     0.81500
N100        N  0.06445748  0.02583531  0.75855343    -0.79100
C101        C  0.06346870  0.07970179  0.76029619     0.81600
N102        N  0.01700697  0.10502302  0.76135838    -0.80900
C103        C  0.01657457  0.32625535  0.55972971     0.79100
N104        N  0.97088230  0.30971471  0.58148059    -0.79200
C105        C  0.97177820  0.27974741  0.62535019     0.81500
N106        N  0.01868571  0.26692225  0.64760722    -0.79100
C107        C  0.06467368  0.28224188  0.62550677     0.81600
N108        N  0.06351854  0.31237122  0.58154794    -0.80900
C109        C  0.06430092  0.85735979  0.76257189     0.79100
N110        N  0.06472272  0.91108661  0.76013999    -0.79200
C111        C  0.01865228  0.93884468  0.75832018     0.81500
N112        N  0.97231386  0.91181421  0.75760675    -0.79100
C113        C  0.97217963  0.85812179  0.75987914     0.81600
N114        N  0.01812881  0.83168455  0.76275533    -0.80900
C115        C  0.01769085  0.55385485  0.67682476     0.79100
N116        N  0.06370179  0.57882889  0.66735081    -0.79200
C117        C  0.06479762  0.62927844  0.65017079     0.81500
N118        N  0.01832247  0.65569355  0.64417427    -0.79100
C119        C  0.97153389  0.63022093  0.64969452     0.81600
N120        N  0.97200335  0.57968716  0.66672465    -0.80900
C121        C  0.06532587  0.85958900  0.24079201     0.79100
N122        N  0.06479487  0.91318492  0.24255228    -0.79200
C123        C  0.01828063  0.94014948  0.24171869     0.81500
N124        N  0.97236276  0.91228787  0.24027836    -0.79100
C125        C  0.97328888  0.85843254  0.23831918     0.81600
N126        N  0.01971523  0.83301233  0.23825159    -0.80900
C127        C  0.01822687  0.61078787  0.44052546     0.79100
N128        N  0.97219334  0.62547832  0.41767552    -0.79200
C129        C  0.97226792  0.65530126  0.37383719     0.81500
N130        N  0.01877356  0.67036905  0.35279825    -0.79100
C131        C  0.06517110  0.65717806  0.37602933     0.81600
N132        N  0.06485748  0.62666712  0.41987117    -0.80900
C133        C  0.97264009  0.08085776  0.23813436     0.79100
N134        N  0.97215187  0.02709970  0.24037009    -0.79200
C135        C  0.01821066  0.99923297  0.24154962     0.81500
N136        N  0.06459015  0.02617615  0.24177439    -0.79100
C137        C  0.06480282  0.07985314  0.23946100     0.81600
N138        N  0.01887570  0.10640808  0.23727422    -0.80900
C139        C  0.01782230  0.38506864  0.32341034     0.79100
N140        N  0.97234013  0.35950398  0.33367439    -0.79200
C141        C  0.97209008  0.30899233  0.35074572     0.81500
N142        N  0.01896816  0.28324548  0.35610257    -0.79100
C143        C  0.06529954  0.30935458  0.34983952     0.81600
N144        N  0.06401731  0.35980152  0.33266529    -0.80900
C145        C  0.27808250  0.51694329  0.39032288     0.79100
N146        N  0.27605841  0.51602437  0.44390877    -0.79200
C147        C  0.27571684  0.46928027  0.47043699     0.81500
N148        N  0.27615802  0.42360107  0.44214689    -0.79100
C149        C  0.27807926  0.42495303  0.38830077     0.81600
N150        N  0.27940194  0.47152140  0.36330627    -0.80900
C151        C  0.07831152  0.47222274  0.14140083     0.79100
N152        N  0.09992305  0.42524543  0.15548368    -0.79200
C153        C  0.14353281  0.42396309  0.18605772     0.81500
N154        N  0.16552501  0.46988847  0.20170779    -0.79100
C155        C  0.14349304  0.51687451  0.18872600     0.81600
N156        N  0.09994157  0.51790292  0.15822027    -0.80900
O157        O  0.20939023  0.73631474  0.09243896    -0.87600
O158        O  0.15831502  0.67314561  0.37518737    -0.87800
O159        O  0.14503062  0.60952523  0.20441253    -0.89400
O160        O  0.11030004  0.77917805  0.23308014    -0.88200
O161        O  0.15635521  0.85273501  0.25686540    -0.87800
O162        O  0.22059863  0.56023914  0.21075471    -0.89200
O163        O  0.10938844  0.67984420  0.29949748    -0.87600
O164        O  0.13592158  0.71254517  0.13872967    -0.87200
Zr165      Zr  0.16700622  0.70113024  0.22769826     2.84300
O166        O  0.19600088  0.74996841  0.29988044    -1.09200
O167        O  0.23856870  0.67120361  0.17843358    -1.09900
C168        C  0.15985091  0.72539917  0.09623390     1.05500
C169        C  0.11446491  0.67097105  0.34905480     1.05400
C170        C  0.17104972  0.56560563  0.20225324     1.08400
C171        C  0.11402708  0.82883915  0.24349541     1.06200
H172        H  0.19974418  0.61818601  0.29388966     0.31800
O173        O  0.21980194  0.64758043  0.28101651    -1.30200
H174        H  0.19364254  0.79471231  0.17573503     0.31400
O175        O  0.21563144  0.77279252  0.19774535    -1.31800
O176        O  0.32867116  0.70114088  0.40806486    -0.87600
O177        O  0.37902508  0.76732111  0.12643491    -0.89100
O178        O  0.28720289  0.56221204  0.31036493    -0.87700
O179        O  0.22200296  0.84312567  0.36164867    -0.87700
O180        O  0.25155421  0.87816339  0.19179764    -0.87400
O181        O  0.31389554  0.59583927  0.14012760    -0.87200
O182        O  0.42671092  0.66071170  0.26804527    -0.87600
O183        O  0.39197456  0.83087942  0.29638539    -0.87100
O184        O  0.38051547  0.58722302  0.24429634    -0.88100
O185        O  0.31615575  0.87978494  0.29038052    -0.87300
O186        O  0.26292537  0.60811767  0.38391030    -0.87700
O187        O  0.30805599  0.67141411  0.09087888    -0.87400
O188        O  0.27495705  0.83193260  0.11810769    -0.87100
O189        O  0.22878387  0.76753394  0.41077702    -0.87500
O190        O  0.40195068  0.72578591  0.36198395    -0.87800
O191        O  0.42796496  0.76143783  0.20219029    -0.89100
Zr192      Zr  0.24995612  0.69663129  0.35241701     2.83100
Zr193      Zr  0.28745467  0.74311055  0.14890309     2.83500
Zr194      Zr  0.29180366  0.61835698  0.23195864     2.84100
Zr195      Zr  0.24510509  0.82143336  0.26966479     2.83400
Zr196      Zr  0.37026713  0.73891309  0.27349934     2.84200
O197        O  0.31713878  0.79236421  0.22051015    -1.09700
O198        O  0.32168486  0.66717428  0.30347103    -1.09200
C199        C  0.37820226  0.71197491  0.40427332     1.05500
C200        C  0.42284677  0.76997730  0.15259309     1.08100
C201        C  0.27644714  0.56585292  0.35995892     1.05600
C202        C  0.22010936  0.81704749  0.40556648     1.06000
C203        C  0.26206421  0.87435508  0.14215510     1.05600
C204        C  0.31611862  0.62175649  0.09617936     1.05100
C205        C  0.42291262  0.61112846  0.25733784     1.05600
C206        C  0.36575015  0.87470446  0.29869446     1.05100
H207        H  0.37038168  0.67690560  0.18135727     0.31800
O208        O  0.34101720  0.68969375  0.20157185    -1.30800
H209        H  0.31171186  0.78883492  0.35231486     0.31800
O210        O  0.29881837  0.76872040  0.32294603    -1.32200
C211        C  0.40711087  0.23178581  0.45460889     0.79100
N212        N  0.46089219  0.22948037  0.45392067    -0.79200
C213        C  0.48889995  0.22812848  0.49989978     0.81500
N214        N  0.46208814  0.22780690  0.54637681    -0.79100
C215        C  0.40843721  0.23014750  0.54680522     0.81600
N216        N  0.38172375  0.23249566  0.50097539    -0.80900
C217        C  0.10294956  0.14655348  0.50205877     0.79100
N218        N  0.12801169  0.13736161  0.45601599    -0.79200
C219        C  0.17848019  0.12013225  0.45478096     0.81500
N220        N  0.20474614  0.11372578  0.50121508    -0.79100
C221        C  0.17916211  0.11901327  0.54801206     0.81600
N222        N  0.12869318  0.13614916  0.54772373    -0.80900
O223        O  0.24787067  0.05943901  0.80798097    -0.87600
O224        O  0.32775395  0.33169485  0.86265602    -0.87800
O225        O  0.37894164  0.16760995  0.87125143    -0.89400
O226        O  0.20839126  0.20032679  0.90779173    -0.88200
O227        O  0.13482532  0.22765429  0.86276713    -0.87800
O228        O  0.42782699  0.17028342  0.79544162    -0.89200
O229        O  0.30771929  0.25828299  0.91118627    -0.87600
O230        O  0.27354459  0.10413624  0.88170810    -0.87200
Zr231      Zr  0.28636858  0.19177347  0.85026079     2.84300
O232        O  0.24068501  0.26686565  0.82289922    -1.09200
O233        O  0.31528364  0.14303023  0.77792517    -1.09900
C234        C  0.25949163  0.06229711  0.85777497     1.05500
C235        C  0.32663219  0.30431945  0.90605189     1.05400
C236        C  0.42270791  0.16386242  0.84524652     1.08400
C237        C  0.15886457  0.21282995  0.90475124     1.06200
H238        H  0.37205511  0.25432527  0.81815900     0.31800
O239        O  0.34188769  0.24322864  0.79808667    -1.30200
H240        H  0.19075497  0.14462836  0.82470294     0.31400
O241        O  0.21267009  0.16634185  0.80281044    -1.31800
O242        O  0.29083168  0.37684289  0.69205276    -0.87600
O243        O  0.20673555  0.10667159  0.63827094    -0.89100
O244        O  0.42786661  0.27465659  0.73151302    -0.87700
O245        O  0.15354989  0.33342860  0.80720175    -0.87700
O246        O  0.10850013  0.16181681  0.76840205    -0.87400
O247        O  0.38265347  0.10255083  0.69228178    -0.87200
O248        O  0.32849054  0.23985159  0.59289475    -0.87600
O249        O  0.15804445  0.26790394  0.62769395    -0.87100
O250        O  0.40181427  0.21107850  0.63729095    -0.88100
O251        O  0.10904743  0.26410594  0.70328184    -0.87300
O252        O  0.38303956  0.34899490  0.75642690    -0.87700
O253        O  0.30525264  0.05763048  0.70366278    -0.87400
O254        O  0.15354288  0.08735734  0.74424075    -0.87100
O255        O  0.23067820  0.37871785  0.79556551    -0.87500
O256        O  0.26387978  0.33270532  0.61849493    -0.87800
O257        O  0.22946390  0.17884515  0.58913289    -0.89100
Zr258      Zr  0.29595586  0.31793987  0.77019545     2.83100
Zr259      Zr  0.24058560  0.11870370  0.73010334     2.83500
Zr260      Zr  0.37011694  0.19519328  0.72497102     2.84100
Zr261      Zr  0.16647043  0.24107300  0.77483936     2.83400
Zr262      Zr  0.25048564  0.24523727  0.65008801     2.84200
O263        O  0.19489250  0.19348197  0.70176940    -1.09700
O264        O  0.32423954  0.27027995  0.69762288    -1.09200
C265        C  0.27885878  0.37424541  0.64234960     1.05500
C266        C  0.20898230  0.13356870  0.59465330     1.08100
C267        C  0.42486617  0.32471085  0.74260023     1.05600
C268        C  0.18287010  0.37528088  0.80998562     1.06000
C269        C  0.11164086  0.11165209  0.75789821     1.05600
C270        C  0.35304331  0.06085723  0.68908185     1.05100
C271        C  0.37792854  0.22732355  0.59570816     1.05600
C272        C  0.11415860  0.27085589  0.65348266     1.05100
H273        H  0.30661501  0.15007897  0.64660830     0.31800
O274        O  0.29582699  0.16975712  0.67709069    -1.30800
H275        H  0.20204149  0.32433125  0.71029778     0.31800
O276        O  0.22117238  0.29369149  0.72229247    -1.32200
C277        C  0.40876842  0.70992800  0.45305649     0.79100
N278        N  0.38200113  0.70826778  0.49864608    -0.79200
C279        C  0.40722468  0.70898148  0.54514176     0.81500
N280        N  0.46109395  0.71066430  0.54615977    -0.79100
C281        C  0.48912191  0.71144095  0.50026559     0.81600
N282        N  0.46233729  0.71166646  0.45368265    -0.80900
C283        C  0.15965757  0.90936238  0.49991447     0.79100
N284        N  0.17638801  0.88803441  0.45400658    -0.79200
C285        C  0.20672411  0.84434075  0.45457284     0.81500
N286        N  0.21965556  0.82185374  0.50135812    -0.79100
C287        C  0.20412480  0.84351426  0.54752126     0.81600
N288        N  0.17368486  0.88728663  0.54669414    -0.80900
C289        C  0.27743517  0.51503466  0.61033425     0.79100
N290        N  0.28037760  0.46906142  0.63668483    -0.79200
C291        C  0.28019314  0.42290195  0.61092586     0.81500
N292        N  0.27772753  0.42257442  0.55713988    -0.79100
C293        C  0.27586358  0.46876070  0.52950870     0.81600
N294        N  0.27512369  0.51499992  0.55668379    -0.80900
C295        C  0.19480804  0.46920432  0.91397024     0.79100
N296        N  0.18458944  0.42327280  0.88913099    -0.79200
C297        C  0.16719039  0.42224601  0.83876114     0.81500
N298        N  0.16152788  0.46874939  0.81232135    -0.79100
C299        C  0.16759997  0.51551988  0.83777718     0.81600
N300        N  0.18494809  0.51494408  0.88820408    -0.80900
O301        O  0.21266472  0.73739099  0.91013021    -0.87600
O302        O  0.15351868  0.66102320  0.63632290    -0.87800
O303        O  0.11027705  0.77628063  0.77300566    -0.89400
O304        O  0.15541396  0.60590844  0.81001181    -0.88200
O305        O  0.22809294  0.55707104  0.78816859    -0.87800
O306        O  0.15453562  0.84996820  0.74674444    -0.89200
O307        O  0.10827291  0.67274644  0.71354401    -0.87600
O308        O  0.13836652  0.71247497  0.86538163    -0.87200
Zr309      Zr  0.16930554  0.69837969  0.77834393     2.84300
O310        O  0.22010840  0.64568009  0.72281457    -1.09200
O311        O  0.21706060  0.77080359  0.80682206    -1.09900
C312        C  0.16260497  0.72648411  0.90712233     1.05500
C313        C  0.11171933  0.65813470  0.66578164     1.05400
C314        C  0.11293097  0.82600019  0.76130773     1.08400
C315        C  0.18239580  0.56228506  0.80791100     1.06200
H316        H  0.16288991  0.75846571  0.68463557     0.31800
O317        O  0.19356432  0.74642136  0.70366073    -1.30200
H318        H  0.23260993  0.65021302  0.85440313     0.31400
O319        O  0.24385987  0.67026815  0.82427506    -1.31800
O320        O  0.32502641  0.70057515  0.59028246    -0.87600
O321        O  0.38484437  0.77557850  0.86455064    -0.89100
O322        O  0.21905997  0.84098320  0.64078149    -0.87700
O323        O  0.28733869  0.56066415  0.69060176    -0.87700
O324        O  0.31821915  0.59606104  0.86110334    -0.87400
O325        O  0.24848469  0.87542321  0.81151546    -0.87200
O326        O  0.38006924  0.83024968  0.68863985    -0.87600
O327        O  0.42727599  0.66030540  0.72993152    -0.87100
O328        O  0.30808730  0.87964515  0.71162516    -0.88100
O329        O  0.38273428  0.58664273  0.75594354    -0.87300
O330        O  0.22228324  0.76549088  0.59152442    -0.87700
O331        O  0.27728926  0.83084575  0.88472052    -0.87400
O332        O  0.31666765  0.67204107  0.90976326    -0.87100
O333        O  0.25982507  0.60569994  0.61710334    -0.87500
O334        O  0.39950277  0.72442103  0.63532872    -0.87800
O335        O  0.42955681  0.76433074  0.78692302    -0.89100
Zr336      Zr  0.24585709  0.69375344  0.64859070     2.83100
Zr337      Zr  0.29220516  0.74314534  0.85242791     2.83500
Zr338      Zr  0.24203224  0.81853106  0.73315702     2.84100
Zr339      Zr  0.29508614  0.61808775  0.76848132     2.83400
Zr340      Zr  0.36822172  0.73828865  0.72249160     2.84200
O341        O  0.34408072  0.69025928  0.79719469    -1.09700
O342        O  0.29340413  0.76676668  0.67713533    -1.09200
C343        C  0.37519934  0.71104702  0.59337530     1.05500
C344        C  0.42640773  0.77884980  0.83475013     1.08100
C345        C  0.21571738  0.81530930  0.59683996     1.05600
C346        C  0.27494829  0.56375444  0.64110085     1.06000
C347        C  0.32225864  0.62208767  0.90483070     1.05600
C348        C  0.26131456  0.87258905  0.86090693     1.05100
C349        C  0.35328344  0.87398505  0.69093932     1.05600
C350        C  0.42451578  0.61059181  0.74183991     1.05100
H351        H  0.33730546  0.82165349  0.78886876     0.31800
O352        O  0.31753463  0.79123549  0.77815697    -1.30800
H353        H  0.34230149  0.64383674  0.67270306     0.31800
O354        O  0.32054611  0.66565520  0.69471224    -1.32200
C355        C  0.75807074  0.42315581  0.39032668     0.79100
N356        N  0.75630858  0.46912252  0.36385964    -0.79200
C357        C  0.75762837  0.51533304  0.38949658     0.81500
N358        N  0.75992700  0.51571876  0.44330326    -0.79100
C359        C  0.76073362  0.46955035  0.47104985     0.81600
N360        N  0.76046903  0.42325918  0.44397107    -0.80900
C361        C  0.84218120  0.46941556  0.08577771     0.79100
N362        N  0.85147380  0.42336657  0.11122754    -0.79200
C363        C  0.86870911  0.42235348  0.16166139     0.81500
N364        N  0.87505478  0.46883499  0.18754677    -0.79100
C365        C  0.86977814  0.51556469  0.16152819     0.81600
N366        N  0.85263959  0.51502500  0.11104326    -0.80900
C367        C  0.56371220  0.58158227  0.25879568     0.79100
N368        N  0.51733404  0.60704338  0.26016714    -0.79200
C369        C  0.47166363  0.58049466  0.25860112     0.81500
N370        N  0.47207493  0.52695181  0.25625998    -0.79100
C371        C  0.51849577  0.49992172  0.25577036     0.81600
N372        N  0.56450961  0.52770888  0.25649724    -0.80900
C373        C  0.51880931  0.82894385  0.06024465     0.79100
N374        N  0.47229292  0.81360256  0.08145329    -0.79200
C375        C  0.47210026  0.78332201  0.12538682     0.81500
N376        N  0.51859256  0.76950934  0.14809214    -0.79100
C377        C  0.56509912  0.78384118  0.12646707     0.81600
N378        N  0.56501012  0.81375960  0.08259007    -0.80900
O379        O  0.79046816  0.87836419  0.19214526    -0.87600
O380        O  0.70721179  0.60770466  0.13829701    -0.87800
O381        O  0.82921307  0.73929986  0.09283090    -0.89400
O382        O  0.65817054  0.76878198  0.12873991    -0.88200
O383        O  0.60912614  0.76573404  0.20437721    -0.87800
O384        O  0.90250982  0.71084988  0.13750792    -0.89200
O385        O  0.72806408  0.68046423  0.08914587    -0.87600
O386        O  0.76420014  0.83385205  0.11852883    -0.87200
Zr387      Zr  0.75099464  0.74640754  0.15004029     2.84300
O388        O  0.69550774  0.69515263  0.20216578    -1.09200
O389        O  0.82471205  0.77172400  0.19751792    -1.09900
C390        C  0.77861646  0.87555919  0.14244070     1.05500
C391        C  0.70845652  0.63477503  0.09473084     1.05400
C392        C  0.87861794  0.72642115  0.09573277     1.08400
C393        C  0.61429275  0.77202254  0.15457086     1.06200
H394        H  0.80714922  0.65120211  0.14663571     0.31800
O395        O  0.79642806  0.67103800  0.17705069    -1.30200
H396        H  0.70264999  0.82572907  0.21040847     0.31400
O397        O  0.72181110  0.79507288  0.22233759    -1.31800
O398        O  0.74771874  0.56123326  0.30815374    -0.87600
O399        O  0.82920455  0.83267829  0.36261410    -0.89100
O400        O  0.88384649  0.60407677  0.19376783    -0.87700
O401        O  0.60903002  0.66353324  0.26789347    -0.87700
O402        O  0.65475156  0.83532547  0.30815700    -0.87400
O403        O  0.92807298  0.77645897  0.22983081    -0.87200
O404        O  0.87938191  0.66982011  0.37133996    -0.87600
O405        O  0.70924431  0.70063352  0.40803972    -0.87100
O406        O  0.92858081  0.67312465  0.29577175    -0.88100
O407        O  0.63567988  0.72836362  0.36330571    -0.87300
O408        O  0.80633269  0.55927468  0.20477782    -0.87700
O409        O  0.88339232  0.85079675  0.25492034    -0.87400
O410        O  0.73208955  0.88037704  0.29697233    -0.87100
O411        O  0.65392137  0.58904646  0.24348508    -0.87500
O412        O  0.77400098  0.60563977  0.38182978    -0.87800
O413        O  0.80703333  0.76000997  0.41124252    -0.89100
Zr414      Zr  0.74107143  0.62025443  0.23011309     2.83100
Zr415      Zr  0.79663421  0.81948703  0.27018462     2.83500
Zr416      Zr  0.87059509  0.69678606  0.22514915     2.84100
Zr417      Zr  0.66706866  0.74279939  0.27529561     2.83400
Zr418      Zr  0.78688387  0.69330135  0.35019797     2.84200
O419        O  0.74137593  0.76856193  0.32305381    -1.09700
O420        O  0.81578734  0.64449840  0.27795641    -1.09200
C421        C  0.75948283  0.56393250  0.35792106     1.05500
C422        C  0.82711834  0.80552101  0.40613799     1.08100
C423        C  0.85429341  0.56240015  0.19070894     1.05600
C424        C  0.61202558  0.61341720  0.25699837     1.06000
C425        C  0.68426835  0.87706755  0.31137441     1.05600
C426        C  0.92505462  0.82657619  0.24051432     1.05100
C427        C  0.92326501  0.66660665  0.34553132     1.05600
C428        C  0.65970683  0.71295632  0.40511913     1.05100
H429        H  0.87277851  0.75608231  0.31814216     0.31800
O430        O  0.84257120  0.74487981  0.29820181    -1.30800
H431        H  0.69120223  0.64614996  0.32459115     0.31800
O432        O  0.71317108  0.66791316  0.30280287    -1.32200
C433        C  0.62966792  0.70636217  0.54598520     0.79100
N434        N  0.57593095  0.70882869  0.54645344    -0.79200
C435        C  0.54819398  0.71112301  0.50039385     0.81500
N436        N  0.57525858  0.71228843  0.45405132    -0.79100
C437        C  0.62893816  0.71000016  0.45387329     0.81600
N438        N  0.65535794  0.70663528  0.49978290    -0.80900
C439        C  0.93303089  0.79210618  0.49933543     0.79100
N440        N  0.90748013  0.80275567  0.45360296    -0.79200
C441        C  0.85693511  0.81987687  0.45309920     0.81500
N442        N  0.83124883  0.82500696  0.49987535    -0.79100
C443        C  0.85745548  0.81851800  0.54637887     0.81600
N444        N  0.90781809  0.80117170  0.54530452    -0.80900
C445        C  0.56521046  0.57778968  0.74222384     0.79100
N446        N  0.56485290  0.52411941  0.74494635    -0.79200
C447        C  0.51839992  0.49728281  0.74492462     0.81500
N448        N  0.47243118  0.52526336  0.74341746    -0.79100
C449        C  0.47306302  0.57900501  0.74076264     0.81600
N450        N  0.51935193  0.60444684  0.73981532    -0.80900
C451        C  0.51900215  0.88447915  0.82238458     0.79100
N452        N  0.47338546  0.85888036  0.83226747    -0.79200
C453        C  0.47305292  0.80852607  0.84980230     0.81500
N454        N  0.51989906  0.78284034  0.85567202    -0.79100
C455        C  0.56630144  0.80885702  0.84952528     0.81600
N456        N  0.56510696  0.85928772  0.83218704    -0.80900
C457        C  0.75994268  0.42169368  0.61050776     0.79100
N458        N  0.75743525  0.46720783  0.63730952    -0.79200
C459        C  0.75747705  0.51371477  0.61209843     0.81500
N460        N  0.75946701  0.51489219  0.55826364    -0.79100
C461        C  0.76095121  0.46913548  0.53015058     0.81600
N462        N  0.76172765  0.42246588  0.55687856    -0.80900
C463        C  0.95922637  0.46794869  0.85845557     0.79100
N464        N  0.93662964  0.51408811  0.84361772    -0.79200
C465        C  0.89266348  0.51422043  0.81398696     0.81500
N466        N  0.87125349  0.46778315  0.79922790    -0.79100
C467        C  0.89422828  0.42127962  0.81255012     0.81600
N468        N  0.93819373  0.42139772  0.84288249    -0.80900
O469        O  0.82673424  0.73851605  0.90893338    -0.87600
O470        O  0.88106967  0.65790598  0.63732305    -0.87800
O471        O  0.89026258  0.60719646  0.79947362    -0.89400
O472        O  0.92645142  0.77779446  0.76956561    -0.88200
O473        O  0.88155206  0.85130885  0.74186504    -0.87800
O474        O  0.81452993  0.55828001  0.79711639    -0.89200
O475        O  0.92990273  0.68032793  0.70976633    -0.87600
O476        O  0.90040034  0.71218528  0.86442287    -0.87200
Zr477      Zr  0.86884389  0.69993210  0.77678218     2.84300
O478        O  0.84155560  0.74552576  0.70167109    -1.09200
O479        O  0.79659968  0.67133245  0.82585141    -1.09900
C480        C  0.87646593  0.72652813  0.90617861     1.05500
C481        C  0.92468557  0.66014736  0.66427218     1.05400
C482        C  0.86439143  0.56338543  0.80297747     1.08400
C483        C  0.92343483  0.82733204  0.75721067     1.06200
H484        H  0.83655919  0.61411606  0.71413932     0.31800
O485        O  0.81662075  0.64430496  0.72549033    -1.30200
H486        H  0.84318688  0.79560376  0.82411219     0.31400
O487        O  0.82135429  0.77367324  0.80234734    -1.31800
O488        O  0.71074836  0.69559694  0.59190342    -0.87600
O489        O  0.65680192  0.78103765  0.86165466    -0.89100
O490        O  0.74859180  0.55883009  0.69412749    -0.87700
O491        O  0.82585860  0.83214855  0.63512886    -0.87700
O492        O  0.78679326  0.87803074  0.80667783    -0.87400
O493        O  0.71149725  0.60385290  0.86656169    -0.87200
O494        O  0.61124423  0.65771762  0.73103430    -0.87600
O495        O  0.64654705  0.82827497  0.70112348    -0.87100
O496        O  0.65591658  0.58449994  0.75972701    -0.88100
O497        O  0.72211611  0.87726338  0.70462217    -0.87300
O498        O  0.77386224  0.60343379  0.61984465    -0.87700
O499        O  0.72147006  0.68177486  0.91103759    -0.87400
O500        O  0.76270817  0.83326350  0.88126658    -0.87100
O501        O  0.81404228  0.75503892  0.58975785    -0.87500
O502        O  0.63710411  0.72203782  0.63626594    -0.87800
O503        O  0.60752586  0.75845150  0.78952718    -0.89100
Zr504      Zr  0.78865040  0.69021466  0.65090054     2.83100
Zr505      Zr  0.74859073  0.74615887  0.85003896     2.83500
Zr506      Zr  0.74367754  0.61633751  0.77384012     2.84100
Zr507      Zr  0.79357697  0.81977264  0.72758937     2.83400
Zr508      Zr  0.66853478  0.73571894  0.72375287     2.84200
O509        O  0.72045870  0.79145032  0.77508978    -1.09700
O510        O  0.71612200  0.66194237  0.69868117    -1.09200
C511        C  0.66103779  0.70740310  0.59461654     1.05500
C512        C  0.61314461  0.77914391  0.83472426     1.08100
C513        C  0.75946895  0.56183151  0.64405262     1.05600
C514        C  0.82857178  0.80280548  0.59323734     1.06000
C515        C  0.77622371  0.87509196  0.85684111     1.05600
C516        C  0.70759463  0.63375113  0.90801390     1.05100
C517        C  0.61413040  0.60835495  0.74402047     1.05600
C518        C  0.67232710  0.87213716  0.69804562     1.05100
H519        H  0.66520263  0.68011740  0.81903969     0.31800
O520        O  0.69567296  0.69069013  0.79925812    -1.30800
H521        H  0.72873059  0.78408442  0.64461382     0.31800
O522        O  0.74074240  0.76499607  0.67526387    -1.32200
C523        C  0.47144865  0.36030078  0.25778410     0.79100
N524        N  0.51729201  0.33367625  0.26066275    -0.79200
C525        C  0.56356520  0.35915797  0.26029263     0.81500
N526        N  0.56421659  0.41287061  0.25765517    -0.79100
C527        C  0.51828789  0.44083920  0.25580691     0.81600
N528        N  0.47181245  0.41400155  0.25530738    -0.80900
C529        C  0.51796932  0.05439616  0.17792135     0.79100
N530        N  0.47190010  0.07963376  0.16781877    -0.79200
C531        C  0.47085628  0.13010710  0.15039968     0.81500
N532        N  0.51739362  0.15596275  0.14438385    -0.79100
C533        C  0.56416506  0.13009229  0.15038653     0.81600
N534        N  0.56362284  0.07985580  0.16807456    -0.80900
O535        O  0.82446055  0.20284316  0.09016913    -0.87600
O536        O  0.88355292  0.27685256  0.36483741    -0.87800
O537        O  0.88057034  0.33217303  0.18961076    -0.89400
O538        O  0.92678887  0.16219058  0.22847134    -0.88200
O539        O  0.88235231  0.08841371  0.25429243    -0.87800
O540        O  0.80759785  0.38111265  0.21046764    -0.89200
O541        O  0.92883202  0.26471386  0.28770873    -0.87600
O542        O  0.89875589  0.22752931  0.13508665    -0.87200
Zr543      Zr  0.86766907  0.24011100  0.22237908     2.84300
O544        O  0.84332324  0.19204174  0.29687985    -1.09200
O545        O  0.79285790  0.26810701  0.17672489    -1.09900
C546        C  0.87449073  0.21394270  0.09320163     1.05500
C547        C  0.92541537  0.27949577  0.33544591     1.05400
C548        C  0.85343765  0.37570151  0.19112376     1.08400
C549        C  0.92406407  0.11239633  0.23995486     1.06200
H550        H  0.83645054  0.32346784  0.28856867     0.31800
O551        O  0.81670480  0.29308678  0.27770432    -1.30200
H552        H  0.84191400  0.14569064  0.17201778     0.31400
O553        O  0.82017774  0.16745083  0.19410883    -1.31800
O554        O  0.71162393  0.23945597  0.40952694    -0.87600
O555        O  0.65283977  0.16205745  0.13630919    -0.89100
O556        O  0.74748192  0.37736716  0.31024846    -0.87700
O557        O  0.81821343  0.09848109  0.36015126    -0.87700
O558        O  0.78663918  0.06221164  0.18988270    -0.87400
O559        O  0.71950953  0.34213764  0.13945683    -0.87200
O560        O  0.60940687  0.27805030  0.27157545    -0.87600
O561        O  0.65524850  0.10772181  0.30966783    -0.87100
O562        O  0.65377808  0.35151877  0.24485692    -0.88100
O563        O  0.72780777  0.05886268  0.28735304    -0.87300
O564        O  0.77601690  0.33261277  0.38346921    -0.87700
O565        O  0.72201355  0.26627303  0.09074405    -0.87400
O566        O  0.75920547  0.10711007  0.11631998    -0.87100
O567        O  0.81508883  0.17405160  0.40940750    -0.87500
O568        O  0.63729275  0.21488173  0.36469918    -0.87800
O569        O  0.60729097  0.17455366  0.21322213    -0.89100
Zr570      Zr  0.79103592  0.24489356  0.35177098     2.83100
Zr571      Zr  0.74524963  0.19509102  0.14818525     2.83500
Zr572      Zr  0.74140376  0.32016273  0.23219243     2.84100
Zr573      Zr  0.79466881  0.11987050  0.26767115     2.83400
Zr574      Zr  0.66849896  0.20019416  0.27772431     2.84200
O575        O  0.71944321  0.14729721  0.22240199    -1.09700
O576        O  0.71610118  0.27273143  0.30599544    -1.09200
C577        C  0.66153264  0.22882322  0.40648124     1.05500
C578        C  0.61090589  0.15945357  0.16564536     1.08100
C579        C  0.76016684  0.37436656  0.35965272     1.05600
C580        C  0.82157881  0.12427453  0.40404921     1.06000
C581        C  0.77422137  0.06515105  0.14036073     1.05600
C582        C  0.71608787  0.31615179  0.09570304     1.05100
C583        C  0.61211472  0.32767102  0.25943160     1.05600
C584        C  0.68229113  0.06413498  0.30745654     1.05100
H585        H  0.66227472  0.25996666  0.18374098     0.31800
O586        O  0.69288945  0.24799319  0.20290941    -1.30800
H587        H  0.73190934  0.15187504  0.35361674     0.31800
O588        O  0.74310327  0.17192020  0.32346300    -1.32200
C589        C  0.47322204  0.35649972  0.74136253     0.79100
N590        N  0.51963351  0.33103347  0.74111140    -0.79200
C591        C  0.56526970  0.35758775  0.74361890     0.81500
N592        N  0.56478093  0.41116459  0.74568703    -0.79100
C593        C  0.51831391  0.43818060  0.74518250     0.81600
N594        N  0.47235925  0.41036370  0.74359699    -0.80900
C595        C  0.51869309  0.10928947  0.94044238     0.79100
N596        N  0.56504695  0.12503595  0.91916322    -0.79200
C597        C  0.56492637  0.15462217  0.87473748     0.81500
N598        N  0.51832275  0.16722270  0.85160355    -0.79100
C599        C  0.47198649  0.15241715  0.87325577     0.81600
N600        N  0.47235690  0.12334826  0.91766803    -0.80900
C601        C  0.62859668  0.22797390  0.54686076     0.79100
N602        N  0.65515814  0.23040156  0.50119738    -0.79200
C603        C  0.62971575  0.23065389  0.45479107     0.81500
N604        N  0.57585690  0.22906315  0.45391656    -0.79100
C605        C  0.54800048  0.22766370  0.49987265     0.81600
N606        N  0.57498392  0.22657954  0.54637535    -0.80900
C607        C  0.87718737  0.02921930  0.49927588     0.79100
N608        N  0.86268001  0.05202006  0.45312449    -0.79200
C609        C  0.83292475  0.09597679  0.45309480     0.81500
N610        N  0.81785150  0.11715460  0.49957728    -0.79100
C611        C  0.83093009  0.09393625  0.54600463     0.81600
N612        N  0.86125576  0.05000871  0.54580101    -0.80900
O613        O  0.82782061  0.20059674  0.90796814    -0.87600
O614        O  0.87903773  0.26470044  0.62681851    -0.87800
O615        O  0.92632035  0.15846853  0.76880451    -0.89400
O616        O  0.89306931  0.32823066  0.79663764    -0.88200
O617        O  0.81739495  0.37728478  0.79040173    -0.87800
O618        O  0.88038515  0.08512648  0.74422799    -0.89200
O619        O  0.92828680  0.25795998  0.70234123    -0.87600
O620        O  0.90129214  0.22443810  0.86178917    -0.87200
Zr621      Zr  0.87006022  0.23677520  0.77324672     2.84300
O622        O  0.81749669  0.29067508  0.71995923    -1.09200
O623        O  0.82132708  0.16509322  0.80286272    -1.09900
C624        C  0.87736224  0.21149575  0.90419420     1.05500
C625        C  0.92295903  0.26655528  0.65283818     1.05400
C626        C  0.92262569  0.10892037  0.75799721     1.08400
C627        C  0.86699734  0.37210809  0.79899059     1.06200
H628        H  0.87019861  0.17517835  0.68092602     0.31800
O629        O  0.84079062  0.18803495  0.70103280    -1.30200
H630        H  0.81145579  0.28697351  0.85176940     0.31400
O631        O  0.79863148  0.26687028  0.82236783    -1.31800
O632        O  0.70903700  0.23575677  0.59184029    -0.87600
O633        O  0.65785957  0.17120705  0.87383825    -0.89100
O634        O  0.81507457  0.09452863  0.63904380    -0.87700
O635        O  0.75165738  0.37648892  0.69078169    -0.87700
O636        O  0.72221606  0.34170352  0.86061385    -0.87400
O637        O  0.78700278  0.06026255  0.80922129    -0.87200
O638        O  0.64525237  0.10744308  0.70308934    -0.87600
O639        O  0.61029963  0.27734598  0.73430297    -0.87100
O640        O  0.72089888  0.05828132  0.70949306    -0.88100
O641        O  0.65656307  0.35094545  0.75768844    -0.87300
O642        O  0.80849901  0.17038518  0.59033396    -0.87700
O643        O  0.76298292  0.10644057  0.88271748    -0.87400
O644        O  0.72781283  0.26602013  0.90976052    -0.87100
O645        O  0.77523626  0.33043536  0.61706884    -0.87500
O646        O  0.63544664  0.21214643  0.63799343    -0.87800
O647        O  0.60901308  0.17715460  0.79802623    -0.89100
Zr648      Zr  0.78721811  0.24161794  0.64842043     2.83100
Zr649      Zr  0.74957391  0.19491960  0.85160530     2.83500
Zr650      Zr  0.79181269  0.11652469  0.73093147     2.84100
Zr651      Zr  0.74548440  0.31982719  0.76890838     2.83400
Zr652      Zr  0.66686307  0.19929227  0.72670937     2.84200
O653        O  0.69615446  0.24825465  0.79871692    -1.09700
O654        O  0.73844247  0.16941118  0.67739494    -1.09200
C655        C  0.65936554  0.22535296  0.59559301     1.05500
C656        C  0.61408037  0.16856328  0.84762672     1.08100
C657        C  0.81723150  0.12082090  0.59528385     1.05600
C658        C  0.76219547  0.37283482  0.64109972     1.06000
C659        C  0.71972403  0.31565632  0.90447344     1.05600
C660        C  0.77637657  0.06411035  0.85882494     1.05100
C661        C  0.67135052  0.06351771  0.70100942     1.05600
C662        C  0.61406335  0.32693674  0.74511124     1.05100
H663        H  0.69972392  0.11640375  0.79277590     0.31800
O664        O  0.71976357  0.14584240  0.77999181    -1.30800
H665        H  0.69344005  0.29332226  0.67534938     0.31800
O666        O  0.71545265  0.27125141  0.69718435    -1.32200
O667        O  0.21002080  0.19796538  0.09163778    -0.87600
O668        O  0.15574631  0.28199688  0.36175402    -0.87800
O669        O  0.11071004  0.15991270  0.22915791    -0.89400
O670        O  0.14558919  0.33061093  0.20058181    -0.88200
O671        O  0.22128679  0.37940146  0.20365180    -0.87800
O672        O  0.15521488  0.08677289  0.25835385    -0.89200
O673        O  0.10674067  0.25989839  0.28928342    -0.87600
O674        O  0.13635422  0.22473759  0.13581766    -0.87200
Zr675      Zr  0.16783114  0.23805124  0.22319467     2.84300
O676        O  0.21963465  0.29382359  0.27454864    -1.09200
O677        O  0.21547243  0.16414530  0.19842134    -1.09900
C678        C  0.16031706  0.21000013  0.09425007     1.05500
C679        C  0.11216124  0.27999810  0.33478050     1.05400
C680        C  0.11359717  0.11053217  0.24201949     1.08400
C681        C  0.17144618  0.37441454  0.19732670     1.06200
H682        H  0.16428723  0.18213394  0.31851204     0.31800
O683        O  0.19473107  0.19282776  0.29874926    -1.30200
H684        H  0.22827274  0.28593077  0.14374043     0.31400
O685        O  0.24013861  0.26691319  0.17449627    -1.31800
O686        O  0.32558350  0.24161620  0.40881234    -0.87600
O687        O  0.38037610  0.15832587  0.13769723    -0.89100
O688        O  0.21092498  0.10591832  0.36626698    -0.87700
O689        O  0.28622431  0.38008481  0.30600379    -0.87700
O690        O  0.32567944  0.33408385  0.13438388    -0.87400
O691        O  0.24852220  0.06059225  0.19408921    -0.87200
O692        O  0.38956283  0.10982432  0.30108994    -0.87600
O693        O  0.42553022  0.28014568  0.26818874    -0.87100
O694        O  0.31381037  0.06097812  0.29832230    -0.88100
O695        O  0.38063000  0.35370699  0.24061432    -0.87300
O696        O  0.22154657  0.18368138  0.41082370    -0.87700
O697        O  0.27312660  0.10506121  0.11950530    -0.87400
O698        O  0.31557191  0.25620786  0.08989600    -0.87100
O699        O  0.26165794  0.33526172  0.38042571    -0.87500
O700        O  0.39941378  0.21578529  0.36432053    -0.87800
O701        O  0.42907593  0.18028809  0.21039928    -0.89100
Zr702      Zr  0.24768441  0.24826003  0.34949795     2.83100
Zr703      Zr  0.28812886  0.19188100  0.15060418     2.83500
Zr704      Zr  0.24289895  0.11848054  0.27357285     2.84100
Zr705      Zr  0.29276326  0.32190700  0.22677629     2.83400
Zr706      Zr  0.36806741  0.20220811  0.27670893     2.84200
O707        O  0.34080115  0.24747663  0.20134712    -1.09700
O708        O  0.29574351  0.17354614  0.32554478    -1.09200
C709        C  0.37541737  0.23008705  0.40607194     1.05500
C710        C  0.42388057  0.16002614  0.16493083     1.08100
C711        C  0.20751581  0.13569790  0.40782523     1.05600
C712        C  0.27554754  0.37700470  0.35614484     1.06000
C713        C  0.32946746  0.30419516  0.09293714     1.05600
C714        C  0.25918425  0.06341724  0.14393345     1.05100
C715        C  0.36362913  0.06605827  0.30478772     1.05600
C716        C  0.42256491  0.32966023  0.25566204     1.05100
H717        H  0.33590100  0.11600471  0.21459430     0.31800
O718        O  0.31594930  0.14634741  0.22551087    -1.30800
H719        H  0.34222678  0.29797360  0.32341078     0.31800
O720        O  0.32038624  0.27596390  0.30173909    -1.32200
C721        C  0.49231390  0.96220311  0.11574035     0.28600
C722        C  0.46293888  0.98238984  0.07363659    -0.37700
C723        C  0.49051853  0.01387298  0.03864368     0.14600
C724        C  0.54434433  0.01641757  0.03794202     0.20400
C725        C  0.57472922  0.98681266  0.07284086    -0.35800
C726        C  0.54756803  0.96246442  0.11425414     0.14500
O727        O  0.47587971  0.97499968  0.16276965    -0.27800
C728        C  0.51788195  0.99599800  0.18450919     0.04300
C729        C  0.56292025  0.97258160  0.16466699    -0.32700
O730        O  0.56193282  0.05138853  0.00423771    -0.24500
C731        C  0.51836017  0.07167242  0.98363102    -0.04500
C732        C  0.47273238  0.05004447  0.00375245    -0.19000
H733        H  0.42063698  0.98598205  0.07625687     0.19000
H734        H  0.61683524  0.99245819  0.07454505     0.17400
H735        H  0.60213747  0.98632806  0.17391616     0.17300
H736        H  0.43237066  0.05927918  0.99376778     0.13200
C737        C  0.02450412  0.85433069  0.47167015     0.28600
C738        C  0.00359974  0.89604753  0.44221424    -0.37700
C739        C  0.97286115  0.93153401  0.47007021     0.14600
C740        C  0.97132420  0.93275573  0.52394868     0.20400
C741        C  0.00157690  0.89823897  0.55410601    -0.35800
C742        C  0.02520832  0.85642361  0.52691303     0.14500
O743        O  0.01171925  0.80708020  0.45597708    -0.27800
C744        C  0.99139795  0.78576961  0.49855391     0.04300
C745        C  0.01524326  0.80623305  0.54303239    -0.32700
O746        O  0.93651712  0.96646268  0.54191423    -0.24500
C747        C  0.91538655  0.98659472  0.49854797    -0.04500
C748        C  0.93634590  0.96625341  0.45266637    -0.19000
H749        H  0.99914108  0.89293239  0.40002090     0.19000
H750        H  0.99668441  0.89698008  0.59634062     0.17400
H751        H  0.00200212  0.79748006  0.58255801     0.17300
H752        H  0.92620526  0.97572788  0.41239667     0.13200
C753        C  0.54554590  0.97619562  0.88512010     0.28600
C754        C  0.57507839  0.95593129  0.92712434    -0.37700
C755        C  0.54748519  0.92485493  0.96250536     0.14600
C756        C  0.49364214  0.92256418  0.96336116     0.20400
C757        C  0.46325737  0.95215582  0.92848275    -0.35800
C758        C  0.49032497  0.97625757  0.88691523     0.14500
O759        O  0.56160033  0.96347663  0.83793347    -0.27800
C760        C  0.51929464  0.94289348  0.81630568     0.04300
C761        C  0.47452623  0.96635913  0.83660578    -0.32700
O762        O  0.47595999  0.88767215  0.99706659    -0.24500
C763        C  0.51944819  0.86714136  0.01756790    -0.04500
C764        C  0.56516521  0.88860130  0.99742714    -0.19000
H765        H  0.61733752  0.95202309  0.92424686     0.19000
H766        H  0.42112309  0.94668247  0.92696293     0.17400
H767        H  0.43518434  0.95281088  0.82760657     0.17300
H768        H  0.60549176  0.87899129  0.00719885     0.13200
C769        C  0.05528744  0.44458245  0.95341641     0.28600
C770        C  0.08967274  0.41494303  0.98431620    -0.37700
C771        C  0.13159230  0.44246169  0.00725466     0.14600
C772        C  0.13362166  0.49771345  0.00577728     0.20400
C773        C  0.09187949  0.52682174  0.98439894    -0.35800
C774        C  0.05652255  0.49847062  0.95403109     0.14500
O775        O  0.02173599  0.42603681  0.91878587    -0.27800
C776        C  0.00173806  0.46905294  0.89680078     0.04300
C777        C  0.02199674  0.51525677  0.91709260    -0.32700
O778        O  0.18079415  0.51317981  0.99248087    -0.24500
C779        C  0.20184936  0.47039479  0.97226820    -0.04500
C780        C  0.18168042  0.42620954  0.99682067    -0.19000
H781        H  0.09090636  0.37262824  0.98018940     0.19000
H782        H  0.09496523  0.56893488  0.97923118     0.17400
H783        H  0.01262415  0.55536499  0.90621217     0.17300
H784        H  0.19031173  0.38656283  0.98383132     0.13200
C785        C  0.06485741  0.00488530  0.52416911     0.28600
C786        C  0.03436190  0.03852445  0.55458343    -0.37700
C787        C  0.01101031  0.08110757  0.52798116     0.14600
C788        C  0.01187324  0.08467515  0.47280855     0.20400
C789        C  0.03335344  0.04391948  0.44275855    -0.35800
C790        C  0.06395206  0.00765361  0.47031403     0.14500
O791        O  0.09944471  0.97071739  0.54205906    -0.27800
C792        C  0.12118323  0.95179737  0.49875060     0.04300
C793        C  0.10078538  0.97340075  0.45286553    -0.32700
O794        O  0.02419804  0.13248380  0.45824322    -0.24500
C795        C  0.04456467  0.15266947  0.50136594    -0.04500
C796        C  0.02098953  0.13082433  0.54527661    -0.19000
H797        H  0.03889186  0.03855226  0.59690643     0.19000
H798        H  0.03814724  0.04828608  0.40072144     0.17400
H799        H  0.11149823  0.96506790  0.41263496     0.17300
H800        H  0.03435143  0.13846406  0.58503297     0.13200
C801        C  0.90305149  0.49950103  0.99399080     0.28600
C802        C  0.94406480  0.52959400  0.01481983    -0.37700
C803        C  0.98046226  0.50210077  0.04533018     0.14600
C804        C  0.98303269  0.44824142  0.04654671     0.20400
C805        C  0.94934650  0.41778075  0.01626510    -0.35800
C806        C  0.90670318  0.44433257  0.99301731     0.14500
O807        O  0.85540329  0.51395954  0.00715172    -0.27800
C808        C  0.83550161  0.47067616  0.02746053     0.04300
C809        C  0.85711578  0.42695186  0.00333226    -0.32700
O810        O  0.01704221  0.43036805  0.08123740    -0.24500
C811        C  0.03611501  0.47366098  0.10275027    -0.04500
C812        C  0.01479616  0.51957601  0.08206344    -0.19000
H813        H  0.93973274  0.57164784  0.01952285     0.19000
H814        H  0.94932408  0.37547902  0.02097021     0.17400
H815        H  0.84965894  0.38711868  0.01654352     0.17300
H816        H  0.02323486  0.55980435  0.09263878     0.13200
C817        C  0.04175168  0.51564463  0.53626661     0.28600
C818        C  0.07157795  0.48469422  0.57042265    -0.37700
C819        C  0.04424563  0.46134939  0.61223541     0.14600
C820        C  0.98902539  0.46274468  0.61448884     0.20400
C821        C  0.95971816  0.48428125  0.57295537    -0.35800
C822        C  0.98787433  0.51485923  0.53759523     0.14500
O823        O  0.06014267  0.55044003  0.50283453    -0.27800
C824        C  0.01707058  0.57236235  0.48294684     0.04300
C825        C  0.97092775  0.55188296  0.50318856    -0.32700
O826        O  0.97366577  0.47558091  0.66186512    -0.24500
C827        C  0.01650423  0.49547595  0.68304758    -0.04500
C828        C  0.06065242  0.47118889  0.66237653    -0.19000
H829        H  0.11386897  0.48894431  0.57155138     0.19000
H830        H  0.91760054  0.48931332  0.57622058     0.17400
H831        H  0.93078593  0.56267900  0.49387336     0.17300
H832        H  0.10031208  0.48405618  0.67098549     0.13200
C833        C  0.03970623  0.42157081  0.46470841     0.28600
C834        C  0.06974656  0.45259146  0.43130805    -0.37700
C835        C  0.04277411  0.47655050  0.38931256     0.14600
C836        C  0.98760354  0.47534831  0.38600928     0.20400
C837        C  0.95790945  0.45338255  0.42673554    -0.35800
C838        C  0.98584108  0.42245949  0.46243686     0.14500
O839        O  0.05799791  0.38668553  0.49832381    -0.27800
C840        C  0.01494076  0.36473503  0.51740490     0.04300
C841        C  0.96880557  0.38529336  0.49646393    -0.32700
O842        O  0.97296252  0.46325813  0.33813679    -0.24500
C843        C  0.01622143  0.44349003  0.31755812    -0.04500
C844        C  0.05990917  0.46743805  0.33935984    -0.19000
H845        H  0.11207632  0.44821826  0.43095308     0.19000
H846        H  0.91587328  0.44850924  0.42260300     0.17400
H847        H  0.92868567  0.37452679  0.50513532     0.17300
H848        H  0.09977552  0.45462400  0.33133509     0.13200
C849        C  0.40403357  0.99410774  0.49311596     0.28600
C850        C  0.44517738  0.02419251  0.51358344    -0.37700
C851        C  0.48089602  0.99705589  0.54515990     0.14600
C852        C  0.48291176  0.94322023  0.54774170     0.20400
C853        C  0.44894187  0.91237849  0.51813643    -0.35800
C854        C  0.40699770  0.93890455  0.49351545     0.14500
O855        O  0.35640997  0.00953485  0.50526545    -0.27800
C856        C  0.33555479  0.96696728  0.52608934     0.04300
C857        C  0.35696154  0.92244642  0.50315083    -0.32700
O858        O  0.51670759  0.92593185  0.58294889    -0.24500
C859        C  0.53611401  0.96962274  0.60339249    -0.04500
C860        C  0.51521148  0.01515237  0.58155925    -0.19000
H861        H  0.44134391  0.06640587  0.51713560     0.19000
H862        H  0.44831422  0.87021496  0.52392238     0.17400
H863        H  0.34868032  0.88297667  0.51693727     0.17300
H864        H  0.52411719  0.05556498  0.59098933     0.13200
C865        C  0.63375970  0.94525052  0.50679673     0.28600
C866        C  0.59274383  0.91476343  0.48660402    -0.37700
C867        C  0.55678719  0.94148994  0.45493544     0.14600
C868        C  0.55438706  0.99529916  0.45220662     0.20400
C869        C  0.58811889  0.02651646  0.48165366    -0.35800
C870        C  0.63039312  0.00044610  0.50613186     0.14500
O871        O  0.68141498  0.93015900  0.49437171    -0.27800
C872        C  0.70170538  0.97275389  0.47303152     0.04300
C873        C  0.68019420  0.01724398  0.49587789    -0.32700
O874        O  0.52034189  0.01224969  0.41713257    -0.24500
C875        C  0.50112692  0.96839849  0.39687876    -0.04500
C876        C  0.52243607  0.92303922  0.41869025    -0.19000
H877        H  0.59686144  0.87255875  0.48325139     0.19000
H878        H  0.58834831  0.06866980  0.47573758     0.17400
H879        H  0.68802407  0.05667530  0.48170833     0.17300
H880        H  0.51366458  0.88255129  0.40946069     0.13200
C881        C  0.51056377  0.58258345  0.97255009     0.28600
C882        C  0.53097917  0.54140062  0.94235955    -0.37700
C883        C  0.56260085  0.50571440  0.96949726     0.14600
C884        C  0.56484705  0.50355239  0.02334611     0.20400
C885        C  0.53482407  0.53720129  0.05416472    -0.35800
C886        C  0.51048597  0.57933697  0.02775490     0.14500
O887        O  0.52341216  0.63013619  0.95758085    -0.27800
C888        C  0.54392138  0.65059441  0.00052288     0.04300
C889        C  0.52043840  0.62915901  0.04466100    -0.32700
O890        O  0.60036088  0.47017882  0.04075146    -0.24500
C891        C  0.62140365  0.45119132  0.99715536    -0.04500
C892        C  0.59961289  0.47190334  0.95151273    -0.19000
H893        H  0.53484326  0.54543021  0.90019008     0.19000
H894        H  0.54031978  0.53761052  0.09637708     0.17400
H895        H  0.53397775  0.63706192  0.08430612     0.17300
H896        H  0.60952960  0.46327822  0.91113798     0.13200
C897        C  0.52483061  0.35348027  0.02709813     0.28600
C898        C  0.50397993  0.39425033  0.05762422    -0.37700
C899        C  0.47193233  0.42984877  0.03082097     0.14600
C900        C  0.46952204  0.43229027  0.97699977     0.20400
C901        C  0.49970481  0.39908303  0.94586658    -0.35800
C902        C  0.52459853  0.35704547  0.97189420     0.14500
O903        O  0.51253513  0.30567260  0.04175926    -0.27800
C904        C  0.49162708  0.28554061  0.99883888     0.04300
C905        C  0.51491040  0.30723241  0.95473490    -0.32700
O906        O  0.43408791  0.46585983  0.95986991    -0.24500
C907        C  0.41323276  0.48476773  0.00359157    -0.04500
C908        C  0.43503564  0.46370822  0.04909237    -0.19000
H909        H  0.50038271  0.38997103  0.09979343     0.19000
H910        H  0.49412433  0.39894475  0.90366225     0.17400
H911        H  0.50119679  0.29947834  0.91511705     0.17300
H912        H  0.42545570  0.47239843  0.08953329     0.13200
loop_ 
_geom_bond_atom_site_label_1 
_geom_bond_atom_site_label_2 
_geom_bond_distance 
_geom_bond_site_symmetry_2 
_ccdc_geom_bond_type 
C1            N2   1.345   1_556  A
C1            N6   1.373       .  A
C1          C312   1.476       .  S
N2            C3   1.349       .  A
C3            N4   1.366       .  A
C3          C168   1.465       .  S
N4            C5   1.367       .  A
C5            N6   1.371   1_554  A
C5           C51   1.505   1_455  S
C7            N8   1.360   1_554  A
C7           N12   1.361       .  A
C7          C907   1.454       .  S
N8            C9   1.352       .  A
C9           N10   1.360   1_556  A
C9          C347   1.471       .  S
N10          C11   1.359       .  A
C11          N12   1.354       .  A
C11         C204   1.473       .  S
C13          N14   1.373       .  A
C13          N18   1.345   1_554  A
C13         C546   1.476       .  S
N14          C15   1.371       .  A
C15          N16   1.366   1_554  A
C15          C63   1.505   1_655  S
N16          C17   1.366       .  A
C17          N18   1.348       .  A
C17         C624   1.463       .  S
C19          N20   1.360       .  A
C19          N24   1.360   1_556  A
C19         C891   1.453       .  S
N20          C21   1.352       .  A
C21          N22   1.358   1_556  A
C21         C659   1.470       .  S
N22          C23   1.360       .  A
C23          N24   1.353       .  A
C23         C582   1.470       .  S
C25          N26   1.369       .  A
C25          N30   1.348       .  A
C25         C390   1.471       .  S
N26          C27   1.367       .  A
C27          N28   1.370   1_565  A
C27          C75   1.504   1_554  S
N28          C29   1.369       .  A
C29          N30   1.349   1_545  A
C29         C581   1.474       .  S
C31          N32   1.358   1_565  A
C31          N36   1.358       .  A
C31         C872   1.495       .  S
N32          C33   1.356       .  A
C33          N34   1.367   1_545  A
C33         C584   1.460       .  S
N34          C35   1.367       .  A
C35          N36   1.357       .  A
C35         C425   1.463       .  S
C37          N38   1.348   1_545  A
C37          N42   1.370       .  A
C37         C234   1.474       .  S
N38          C39   1.350       .  A
C39          N40   1.368       .  A
C39         C348   1.474       .  S
N40          C41   1.370       .  A
C41          N42   1.368   1_565  A
C41          C89   1.505   1_556  S
C43          N44   1.357       .  A
C43          N48   1.358   1_565  A
C43         C856   1.495       .  S
N44          C45   1.355       .  A
C45          N46   1.367       .  A
C45         C349   1.459       .  S
N46          C47   1.366   1_565  A
C47          N48   1.358       .  A
C47         C270   1.464       .  S
C49          N50   1.368       .  A
C49          N54   1.349       .  A
C49         C392   1.471       .  S
N50          C51   1.369       .  A
C51          N52   1.369   1_554  A
N52          C53   1.371       .  A
C53          N54   1.348   1_556  A
C53         C480   1.473       .  S
C55          N56   1.358   1_554  A
C55          N60   1.358       .  A
C55         C888   1.495       .  S
N56          C57   1.358       .  A
C57          N58   1.366   1_556  A
C57         C516   1.463       .  S
N58          C59   1.366       .  A
C59          N60   1.356       .  A
C59         C391   1.459       .  S
C61          N62   1.369       .  A
C61          N66   1.349       .  A
C61         C237   1.472       .  S
N62          C63   1.369   1_556  A
C63          N64   1.368       .  A
N64          C65   1.370       .  A
C65          N66   1.348   1_554  A
C65         C678   1.471       .  S
C67          N68   1.357   1_556  A
C67          N72   1.358       .  A
C67         C904   1.496       .  S
N68          C69   1.357       .  A
C69          N70   1.367   1_554  A
C69         C713   1.462       .  S
N70          C71   1.367       .  A
C71          N72   1.356       .  A
C71         C235   1.461       .  S
C73          N74   1.373       .  A
C73          N78   1.345       .  A
C73         C515   1.477       .  S
N74          C75   1.372       .  A
C75          N76   1.365   1_565  A
N76          C77   1.365       .  A
C77          N78   1.348   1_545  A
C77         C660   1.463       .  S
C79          N80   1.360   1_565  A
C79          N84   1.360       .  A
C79         C859   1.454       .  S
N80          C81   1.352       .  A
C81          N82   1.359   1_545  A
C81         C661   1.472       .  S
N82          C83   1.360       .  A
C83          N84   1.354       .  A
C83         C518   1.472       .  S
C85          N86   1.345   1_545  A
C85          N90   1.374       .  A
C85         C714   1.477       .  S
N86          C87   1.349       .  A
C87          N88   1.365       .  A
C87         C203   1.463       .  S
N88          C89   1.365       .  A
C89          N90   1.372   1_565  A
C91          N92   1.361       .  A
C91          N96   1.359   1_565  A
C91         C875   1.454       .  S
N92          C93   1.353       .  A
C93          N94   1.359       .  A
C93         C206   1.473       .  S
N94          C95   1.360   1_565  A
C95          N96   1.352       .  A
C95         C715   1.471       .  S
C97          N98   1.365       .  A
C97         N102   1.349   1_655  A
C97         C626   1.464       .  S
N98          C99   1.366   1_645  A
C99         N100   1.372   1_565  A
C99         C111   1.504       .  S
N100        C101   1.373       .  A
C101        N102   1.345       .  A
C101        C269   1.477       .  S
C103        N104   1.359   1_455  A
C103        N108   1.361       .  A
C103        C840   1.454       .  S
N104        C105   1.351       .  A
C105        N106   1.358   1_655  A
C105        C625   1.469       .  S
N106        C107   1.360       .  A
C107        N108   1.355       .  A
C107        C272   1.473       .  S
C109        N110   1.370       .  A
C109        N114   1.348       .  A
C109        C314   1.471       .  S
N110        C111   1.368       .  A
C111        N112   1.369   1_455  A
N112        C113   1.368       .  A
C113        N114   1.349   1_655  A
C113        C483   1.473       .  S
C115        N116   1.358       .  A
C115        N120   1.357   1_455  A
C115        C827   1.495       .  S
N116        C117   1.356       .  A
C117        N118   1.366       .  A
C117        C313   1.461       .  S
N118        C119   1.367   1_455  A
C119        N120   1.357       .  A
C119        C481   1.462       .  S
C121        N122   1.366       .  A
C121        N126   1.349       .  A
C121        C171   1.465       .  S
N122        C123   1.367       .  A
C123        N124   1.371   1_455  A
C123        C135   1.505       .  S
N124        C125   1.373       .  A
C125        N126   1.345   1_655  A
C125        C426   1.477       .  S
C127        N128   1.357   1_455  A
C127        N132   1.363       .  A
C127        C824   1.455       .  S
N128        C129   1.348       .  A
C129        N130   1.358   1_655  A
C129        C427   1.466       .  S
N130        C131   1.360       .  A
C131        N132   1.358       .  A
C131        C169   1.477       .  S
C133        N134   1.370       .  A
C133        N138   1.348   1_655  A
C133        C549   1.473       .  S
N134        C135   1.368   1_645  A
C135        N136   1.369   1_565  A
N136        C137   1.368       .  A
C137        N138   1.349       .  A
C137        C680   1.473       .  S
C139        N140   1.357   1_455  A
C139        N144   1.358       .  A
C139        C843   1.495       .  S
N140        C141   1.356       .  A
C141        N142   1.366   1_655  A
C141        C547   1.462       .  S
N142        C143   1.367       .  A
C143        N144   1.356       .  A
C143        C679   1.459       .  S
C145        N146   1.366       .  A
C145        N150   1.348       .  A
C145        C201   1.464       .  S
N146        C147   1.367       .  A
C147        N148   1.370       .  A
C147        C293   1.504       .  S
N148        C149   1.372       .  A
C149        N150   1.345       .  A
C149        C712   1.474       .  S
C151        N152   1.361       .  A
C151        N156   1.360       .  A
C151        C811   1.455       .  S
N152        C153   1.354       .  A
C153        N154   1.360       .  A
C153        C681   1.472       .  S
N154        C155   1.358       .  A
C155        N156   1.352       .  A
C155        C170   1.470       .  S
O157       Zr193   2.457       .  S
O157        C168   1.297       .  A
O158       Zr192   2.482       .  S
O158        C169   1.300       .  A
O159       Zr165   2.475       .  S
O159        C170   1.299       .  A
O160       Zr165   2.456       .  S
O160        C171   1.297       .  A
O161       Zr195   2.414       .  S
O161        C171   1.286       .  A
O162       Zr194   2.407       .  S
O162        C170   1.286       .  A
O163       Zr165   2.410       .  S
O163        C169   1.287       .  A
O164       Zr165   2.413       .  S
O164        C168   1.286       .  A
Zr165       O166   2.342       .  S
Zr165       O167   2.342       .  S
Zr165       O175   2.338       .  S
Zr165       O173   2.338       .  S
O166       Zr192   2.341       .  S
O166       Zr195   2.343       .  S
O167       Zr193   2.343       .  S
O167       Zr194   2.337       .  S
H172        O173   0.965       .  S
O173       Zr192   2.339       .  S
O173       Zr194   2.343       .  S
H174        O175   0.965       .  S
O175       Zr193   2.340       .  S
O175       Zr195   2.338       .  S
O176       Zr192   2.454       .  S
O176        C199   1.297       .  A
O177       Zr193   2.484       .  S
O177        C200   1.300       .  A
O178       Zr194   2.455       .  S
O178        C201   1.297       .  A
O179       Zr195   2.481       .  S
O179        C202   1.300       .  A
O180       Zr195   2.456       .  S
O180        C203   1.297       .  A
O181       Zr194   2.476       .  S
O181        C204   1.299       .  A
O182       Zr196   2.455       .  S
O182        C205   1.297       .  A
O183       Zr196   2.480       .  S
O183        C206   1.300       .  A
O184       Zr194   2.410       .  S
O184        C205   1.285       .  A
O185       Zr195   2.405       .  S
O185        C206   1.286       .  A
O186       Zr192   2.411       .  S
O186        C201   1.285       .  A
O187       Zr193   2.410       .  S
O187        C204   1.287       .  A
O188       Zr193   2.411       .  S
O188        C203   1.286       .  A
O189       Zr192   2.403       .  S
O189        C202   1.285       .  A
O190       Zr196   2.412       .  S
O190        C199   1.286       .  A
O191       Zr196   2.409       .  S
O191        C200   1.287       .  A
Zr192       O198   2.337       .  S
Zr192       O210   2.345       .  S
Zr193       O197   2.342       .  S
Zr193       O208   2.338       .  S
Zr194       O198   2.336       .  S
Zr194       O208   2.343       .  S
Zr195       O197   2.343       .  S
Zr195       O210   2.339       .  S
Zr196       O197   2.337       .  S
Zr196       O198   2.339       .  S
Zr196       O210   2.342       .  S
Zr196       O208   2.344       .  S
C199        C277   1.464       .  S
C200        C375   1.476       .  S
C202        C285   1.471       .  S
C205        C369   1.463       .  S
H207        O208   0.965       .  S
H209        O210   0.965       .  S
C211        N212   1.371       .  A
C211        N216   1.348       .  A
C211        C709   1.475       .  S
N212        C213   1.369       .  A
C213        N214   1.369       .  A
C213        C605   1.505       .  S
N214        C215   1.368       .  A
C215        N216   1.350       .  A
C215        C271   1.472       .  S
C217        N218   1.357       .  A
C217        N222   1.358       .  A
C217        C795   1.494       .  S
N218        C219   1.357       .  A
C219        N220   1.365       .  A
C219        C711   1.463       .  S
N220        C221   1.367       .  A
C221        N222   1.355       .  A
C221        C266   1.457       .  S
O223       Zr259   2.494       .  S
O223        C234   1.303       .  A
O224       Zr258   2.513       .  S
O224        C235   1.305       .  A
O225       Zr231   2.490       .  S
O225        C236   1.302       .  A
O226       Zr231   2.481       .  S
O226        C237   1.301       .  A
O227       Zr261   2.406       .  S
O227        C237   1.285       .  A
O228       Zr260   2.397       .  S
O228        C236   1.285       .  A
O229       Zr231   2.365       .  S
O229        C235   1.276       .  A
O230       Zr231   2.393       .  S
O230        C234   1.281       .  A
Zr231       O232   2.337       .  S
Zr231       O233   2.344       .  S
Zr231       O241   2.325       .  S
Zr231       O239   2.345       .  S
O232       Zr258   2.344       .  S
O232       Zr261   2.346       .  S
O233       Zr259   2.342       .  S
O233       Zr260   2.356       .  S
C236        C599   1.469       .  S
H238        O239   0.965       .  S
O239       Zr258   2.336       .  S
O239       Zr260   2.345       .  S
H240        O241   0.965       .  S
O241       Zr259   2.329       .  S
O241       Zr261   2.340       .  S
O242       Zr258   2.490       .  S
O242        C265   1.303       .  A
O243       Zr259   2.510       .  S
O243        C266   1.304       .  A
O244       Zr260   2.513       .  S
O244        C267   1.309       .  A
O245       Zr261   2.515       .  S
O245        C268   1.306       .  A
O246       Zr261   2.512       .  S
O246        C269   1.308       .  A
O247       Zr260   2.524       .  S
O247        C270   1.308       .  A
O248       Zr262   2.471       .  S
O248        C271   1.299       .  A
O249       Zr262   2.485       .  S
O249        C272   1.300       .  A
O250       Zr260   2.410       .  S
O250        C271   1.285       .  A
O251       Zr261   2.402       .  S
O251        C272   1.286       .  A
O252       Zr258   2.385       .  S
O252        C267   1.280       .  A
O253       Zr259   2.361       .  S
O253        C270   1.277       .  A
O254       Zr259   2.388       .  S
O254        C269   1.281       .  A
O255       Zr258   2.360       .  S
O255        C268   1.276       .  A
O256       Zr262   2.392       .  S
O256        C265   1.281       .  A
O257       Zr262   2.361       .  S
O257        C266   1.275       .  A
Zr258       O264   2.329       .  S
Zr258       O276   2.345       .  S
Zr259       O263   2.338       .  S
Zr259       O274   2.348       .  S
Zr260       O264   2.339       .  S
Zr260       O274   2.342       .  S
Zr261       O263   2.339       .  S
Zr261       O276   2.355       .  S
Zr262       O263   2.344       .  S
Zr262       O264   2.324       .  S
Zr262       O276   2.340       .  S
Zr262       O274   2.338       .  S
C265        C291   1.473       .  S
C267        C589   1.477       .  S
C268        C297   1.460       .  S
H273        O274   0.965       .  S
H275        O276   0.966       .  S
C277        N278   1.349       .  A
C277        N282   1.365       .  A
N278        C279   1.345       .  A
C279        N280   1.373       .  A
C279        C343   1.478       .  S
N280        C281   1.372       .  A
C281        N282   1.366       .  A
C281        C435   1.505       .  S
C283        N284   1.360       .  A
C283        N288   1.361       .  A
C283        C792   1.455       .  S
N284        C285   1.352       .  A
C285        N286   1.359       .  A
N286        C287   1.360       .  A
C287        N288   1.355       .  A
C287        C345   1.473       .  S
C289        N290   1.349       .  A
C289        N294   1.367       .  A
C289        C346   1.471       .  S
N290        C291   1.348       .  A
C291        N292   1.371       .  A
N292        C293   1.369       .  A
C293        N294   1.368       .  A
C295        N296   1.358       .  A
C295        N300   1.357       .  A
C295        C779   1.495       .  S
N296        C297   1.356       .  A
C297        N298   1.367       .  A
N298        C299   1.367       .  A
C299        N300   1.356       .  A
C299        C315   1.462       .  S
O301       Zr337   2.511       .  S
O301        C312   1.308       .  A
O302       Zr336   2.518       .  S
O302        C313   1.307       .  A
O303       Zr309   2.486       .  S
O303        C314   1.302       .  A
O304       Zr309   2.513       .  S
O304        C315   1.305       .  A
O305       Zr339   2.367       .  S
O305        C315   1.276       .  A
O306       Zr338   2.391       .  S
O306        C314   1.281       .  A
O307       Zr309   2.359       .  S
O307        C313   1.276       .  A
O308       Zr309   2.383       .  S
O308        C312   1.280       .  A
Zr309       O310   2.342       .  S
Zr309       O311   2.331       .  S
Zr309       O319   2.335       .  S
Zr309       O317   2.344       .  S
O310       Zr336   2.345       .  S
O310       Zr339   2.336       .  S
O311       Zr337   2.339       .  S
O311       Zr338   2.324       .  S
H316        O317   0.966       .  S
O317       Zr336   2.356       .  S
O317       Zr338   2.342       .  S
H318        O319   0.965       .  S
O319       Zr337   2.345       .  S
O319       Zr339   2.345       .  S
O320       Zr336   2.515       .  S
O320        C343   1.309       .  A
O321       Zr337   2.522       .  S
O321        C344   1.308       .  A
O322       Zr338   2.486       .  S
O322        C345   1.301       .  A
O323       Zr339   2.476       .  S
O323        C346   1.300       .  A
O324       Zr339   2.490       .  S
O324        C347   1.302       .  A
O325       Zr338   2.475       .  S
O325        C348   1.300       .  A
O326       Zr340   2.513       .  S
O326        C349   1.305       .  A
O327       Zr340   2.492       .  S
O327        C350   1.303       .  A
O328       Zr338   2.362       .  S
O328        C349   1.275       .  A
O329       Zr339   2.391       .  S
O329        C350   1.281       .  A
O330       Zr336   2.403       .  S
O330        C345   1.287       .  A
O331       Zr337   2.412       .  S
O331        C348   1.286       .  A
O332       Zr337   2.400       .  S
O332        C347   1.286       .  A
O333       Zr336   2.409       .  S
O333        C346   1.285       .  A
O334       Zr340   2.388       .  S
O334        C343   1.281       .  A
O335       Zr340   2.360       .  S
O335        C344   1.277       .  A
Zr336       O342   2.340       .  S
Zr336       O354   2.340       .  S
Zr337       O341   2.355       .  S
Zr337       O352   2.344       .  S
Zr338       O342   2.344       .  S
Zr338       O352   2.337       .  S
Zr339       O341   2.344       .  S
Zr339       O354   2.327       .  S
Zr340       O341   2.343       .  S
Zr340       O342   2.336       .  S
Zr340       O354   2.328       .  S
Zr340       O352   2.346       .  S
C344        C453   1.462       .  S
C350        C449   1.472       .  S
H351        O352   0.966       .  S
H353        O354   0.965       .  S
C355        N356   1.349       .  A
C355        N360   1.367       .  A
C355        C579   1.471       .  S
N356        C357   1.348       .  A
C357        N358   1.371       .  A
C357        C421   1.475       .  S
N358        C359   1.370       .  A
C359        N360   1.368       .  A
C359        C461   1.505       .  S
C361        N362   1.357       .  A
C361        N366   1.357       .  A
C361        C808   1.494       .  S
N362        C363   1.356       .  A
C363        N364   1.367       .  A
C363        C548   1.458       .  S
N364        C365   1.366       .  A
C365        N366   1.356       .  A
C365        C423   1.461       .  S
C367        N368   1.345       .  A
C367        N372   1.373       .  A
C367        C424   1.478       .  S
N368        C369   1.349       .  A
C369        N370   1.365       .  A
N370        C371   1.365       .  A
C371        N372   1.372       .  A
C371        C527   1.505       .  S
C373        N374   1.362       .  A
C373        N378   1.359       .  A
C373        C763   1.456       .  S
N374        C375   1.356       .  A
C375        N376   1.360       .  A
N376        C377   1.359       .  A
C377        N378   1.350       .  A
C377        C393   1.470       .  S
O379       Zr415   2.489       .  S
O379        C390   1.302       .  A
O380       Zr414   2.511       .  S
O380        C391   1.305       .  A
O381       Zr387   2.479       .  S
O381        C392   1.301       .  A
O382       Zr387   2.487       .  S
O382        C393   1.301       .  A
O383       Zr417   2.397       .  S
O383        C393   1.285       .  A
O384       Zr416   2.404       .  S
O384        C392   1.284       .  A
O385       Zr387   2.364       .  S
O385        C391   1.276       .  A
O386       Zr387   2.390       .  S
O386        C390   1.281       .  A
Zr387       O388   2.341       .  S
Zr387       O389   2.325       .  S
Zr387       O397   2.344       .  S
Zr387       O395   2.337       .  S
O388       Zr414   2.335       .  S
O388       Zr417   2.341       .  S
O389       Zr415   2.331       .  S
O389       Zr416   2.338       .  S
H394        O395   0.966       .  S
O395       Zr414   2.346       .  S
O395       Zr416   2.345       .  S
H396        O397   0.966       .  S
O397       Zr415   2.346       .  S
O397       Zr417   2.357       .  S
O398       Zr414   2.492       .  S
O398        C421   1.303       .  A
O399       Zr415   2.517       .  S
O399        C422   1.306       .  A
O400       Zr416   2.517       .  S
O400        C423   1.307       .  A
O401       Zr417   2.515       .  S
O401        C424   1.309       .  A
O402       Zr417   2.522       .  S
O402        C425   1.308       .  A
O403       Zr416   2.511       .  S
O403        C426   1.308       .  A
O404       Zr418   2.485       .  S
O404        C427   1.301       .  A
O405       Zr418   2.477       .  S
O405        C428   1.300       .  A
O406       Zr416   2.396       .  S
O406        C427   1.285       .  A
O407       Zr417   2.410       .  S
O407        C428   1.285       .  A
O408       Zr414   2.362       .  S
O408        C423   1.277       .  A
O409       Zr415   2.386       .  S
O409        C426   1.280       .  A
O410       Zr415   2.359       .  S
O410        C425   1.276       .  A
O411       Zr414   2.386       .  S
O411        C424   1.281       .  A
O412       Zr418   2.395       .  S
O412        C421   1.282       .  A
O413       Zr418   2.364       .  S
O413        C422   1.276       .  A
Zr414       O420   2.342       .  S
Zr414       O432   2.328       .  S
Zr415       O419   2.344       .  S
Zr415       O430   2.335       .  S
Zr416       O420   2.356       .  S
Zr416       O430   2.342       .  S
Zr417       O419   2.344       .  S
Zr417       O432   2.339       .  S
Zr418       O419   2.336       .  S
Zr418       O420   2.343       .  S
Zr418       O432   2.324       .  S
Zr418       O430   2.347       .  S
C422        C441   1.463       .  S
C428        C437   1.472       .  S
H429        O430   0.965       .  S
H431        O432   0.965       .  S
C433        N434   1.370       .  A
C433        N438   1.348       .  A
C433        C511   1.472       .  S
N434        C435   1.368       .  A
C435        N436   1.369       .  A
N436        C437   1.368       .  A
C437        N438   1.349       .  A
C439        N440   1.358       .  A
C439        N444   1.357       .  A
C439        C744   1.495       .  S
N440        C441   1.357       .  A
C441        N442   1.367       .  A
N442        C443   1.366       .  A
C443        N444   1.355       .  A
C443        C514   1.460       .  S
C445        N446   1.368       .  A
C445        N450   1.349       .  A
C445        C517   1.473       .  S
N446        C447   1.369       .  A
C447        N448   1.368       .  A
C447        C593   1.505       .  S
N448        C449   1.370       .  A
C449        N450   1.348       .  A
C451        N452   1.359       .  A
C451        N456   1.357       .  A
C451        C760   1.495       .  S
N452        C453   1.356       .  A
C453        N454   1.365       .  A
N454        C455   1.367       .  A
C455        N456   1.357       .  A
C455        C512   1.461       .  S
C457        N458   1.349       .  A
C457        N462   1.367       .  A
C457        C658   1.466       .  S
N458        C459   1.345       .  A
C459        N460   1.372       .  A
C459        C513   1.474       .  S
N460        C461   1.370       .  A
C461        N462   1.367       .  A
C463        N464   1.358       .  A
C463        N468   1.363       .  A
C463        C776   1.456   1_655  S
N464        C465   1.348       .  A
C465        N466   1.358       .  A
C465        C482   1.467       .  S
N466        C467   1.360       .  A
C467        N468   1.358       .  A
C467        C627   1.476       .  S
O469       Zr505   2.494       .  S
O469        C480   1.304       .  A
O470       Zr504   2.515       .  S
O470        C481   1.305       .  A
O471       Zr477   2.487       .  S
O471        C482   1.301       .  A
O472       Zr477   2.479       .  S
O472        C483   1.301       .  A
O473       Zr507   2.411       .  S
O473        C483   1.285       .  A
O474       Zr506   2.399       .  S
O474        C482   1.285       .  A
O475       Zr477   2.366       .  S
O475        C481   1.276       .  A
O476       Zr477   2.391       .  S
O476        C480   1.281       .  A
Zr477       O478   2.336       .  S
Zr477       O479   2.345       .  S
Zr477       O487   2.325       .  S
Zr477       O485   2.345       .  S
O478       Zr504   2.343       .  S
O478       Zr507   2.344       .  S
O479       Zr505   2.345       .  S
O479       Zr506   2.356       .  S
H484        O485   0.965       .  S
O485       Zr504   2.334       .  S
O485       Zr506   2.345       .  S
H486        O487   0.965       .  S
O487       Zr505   2.329       .  S
O487       Zr507   2.339       .  S
O488       Zr504   2.487       .  S
O488        C511   1.302       .  A
O489       Zr505   2.516       .  S
O489        C512   1.305       .  A
O490       Zr506   2.510       .  S
O490        C513   1.308       .  A
O491       Zr507   2.516       .  S
O491        C514   1.306       .  A
O492       Zr507   2.512       .  S
O492        C515   1.308       .  A
O493       Zr506   2.522       .  S
O493        C516   1.307       .  A
O494       Zr508   2.477       .  S
O494        C517   1.300       .  A
O495       Zr508   2.485       .  S
O495        C518   1.301       .  A
O496       Zr506   2.408       .  S
O496        C517   1.285       .  A
O497       Zr507   2.400       .  S
O497        C518   1.286       .  A
O498       Zr504   2.381       .  S
O498        C513   1.280       .  A
O499       Zr505   2.362       .  S
O499        C516   1.277       .  A
O500       Zr505   2.388       .  S
O500        C515   1.281       .  A
O501       Zr504   2.359       .  S
O501        C514   1.276       .  A
O502       Zr508   2.392       .  S
O502        C511   1.281       .  A
O503       Zr508   2.360       .  S
O503        C512   1.275       .  A
Zr504       O510   2.331       .  S
Zr504       O522   2.344       .  S
Zr505       O509   2.335       .  S
Zr505       O520   2.346       .  S
Zr506       O510   2.339       .  S
Zr506       O520   2.343       .  S
Zr507       O509   2.340       .  S
Zr507       O522   2.356       .  S
Zr508       O509   2.343       .  S
Zr508       O510   2.324       .  S
Zr508       O522   2.342       .  S
Zr508       O520   2.336       .  S
H519        O520   0.966       .  S
H521        O522   0.966       .  S
C523        N524   1.349       .  A
C523        N528   1.369       .  A
C523        C716   1.473       .  S
N524        C525   1.348       .  A
C525        N526   1.369       .  A
C525        C583   1.471       .  S
N526        C527   1.367       .  A
C527        N528   1.370       .  A
C529        N530   1.358       .  A
C529        N534   1.358       .  A
C529        C728   1.496   1_545  S
N530        C531   1.358       .  A
C531        N532   1.368       .  A
C531        C710   1.465       .  S
N532        C533   1.366       .  A
C533        N534   1.355       .  A
C533        C578   1.461       .  S
O535       Zr571   2.513       .  S
O535        C546   1.309       .  A
O536       Zr570   2.518       .  S
O536        C547   1.307       .  A
O537       Zr543   2.509       .  S
O537        C548   1.304       .  A
O538       Zr543   2.489       .  S
O538        C549   1.303       .  A
O539       Zr573   2.395       .  S
O539        C549   1.282       .  A
O540       Zr572   2.363       .  S
O540        C548   1.276       .  A
O541       Zr543   2.363       .  S
O541        C547   1.277       .  A
O542       Zr543   2.384       .  S
O542        C546   1.280       .  A
Zr543       O544   2.341       .  S
Zr543       O545   2.336       .  S
Zr543       O553   2.330       .  S
Zr543       O551   2.345       .  S
O544       Zr570   2.355       .  S
O544       Zr573   2.343       .  S
O545       Zr571   2.341       .  S
O545       Zr572   2.341       .  S
H550        O551   0.966       .  S
O551       Zr570   2.343       .  S
O551       Zr572   2.337       .  S
H552        O553   0.965       .  S
O553       Zr571   2.339       .  S
O553       Zr573   2.324       .  S
O554       Zr570   2.509       .  S
O554        C577   1.308       .  A
O555       Zr571   2.521       .  S
O555        C578   1.307       .  A
O556       Zr572   2.473       .  S
O556        C579   1.300       .  A
O557       Zr573   2.486       .  S
O557        C580   1.301       .  A
O558       Zr573   2.478       .  S
O558        C581   1.301       .  A
O559       Zr572   2.486       .  S
O559        C582   1.301       .  A
O560       Zr574   2.488       .  S
O560        C583   1.302       .  A
O561       Zr574   2.513       .  S
O561        C584   1.305       .  A
O562       Zr572   2.390       .  S
O562        C583   1.281       .  A
O563       Zr573   2.365       .  S
O563        C584   1.276       .  A
O564       Zr570   2.407       .  S
O564        C579   1.285       .  A
O565       Zr571   2.396       .  S
O565        C582   1.285       .  A
O566       Zr571   2.411       .  S
O566        C581   1.285       .  A
O567       Zr570   2.397       .  S
O567        C580   1.285       .  A
O568       Zr574   2.386       .  S
O568        C577   1.280       .  A
O569       Zr574   2.357       .  S
O569        C578   1.276       .  A
Zr570       O576   2.339       .  S
Zr570       O588   2.343       .  S
Zr571       O575   2.342       .  S
Zr571       O586   2.355       .  S
Zr572       O576   2.325       .  S
Zr572       O586   2.342       .  S
Zr573       O575   2.335       .  S
Zr573       O588   2.347       .  S
Zr574       O575   2.344       .  S
Zr574       O576   2.329       .  S
Zr574       O588   2.335       .  S
Zr574       O586   2.344       .  S
C577        C603   1.476       .  S
C580        C609   1.467       .  S
H585        O586   0.966       .  S
H587        O588   0.965       .  S
C589        N590   1.346       .  A
C589        N594   1.373       .  A
N590        C591   1.349       .  A
C591        N592   1.366       .  A
C591        C662   1.465       .  S
N592        C593   1.366       .  A
C593        N594   1.372       .  A
C595        N596   1.362       .  A
C595        N600   1.359       .  A
C595        C731   1.456       .  S
N596        C597   1.357       .  A
C597        N598   1.360       .  A
C597        C656   1.476       .  S
N598        C599   1.359       .  A
C599        N600   1.349       .  A
C601        N602   1.349       .  A
C601        N606   1.366       .  A
C601        C655   1.466       .  S
N602        C603   1.346       .  A
C603        N604   1.373       .  A
N604        C605   1.371       .  A
C605        N606   1.367       .  A
C607        N608   1.358       .  A
C607        N612   1.362       .  A
C607        C747   1.454   1_545  S
N608        C609   1.349       .  A
C609        N610   1.358       .  A
N610        C611   1.360       .  A
C611        N612   1.356       .  A
C611        C657   1.474       .  S
O613       Zr649   2.457       .  S
O613        C624   1.297       .  A
O614       Zr648   2.477       .  S
O614        C625   1.299       .  A
O615       Zr621   2.453       .  S
O615        C626   1.296       .  A
O616       Zr621   2.479       .  S
O616        C627   1.299       .  A
O617       Zr651   2.412       .  S
O617        C627   1.287       .  A
O618       Zr650   2.412       .  S
O618        C626   1.286       .  A
O619       Zr621   2.402       .  S
O619        C625   1.285       .  A
O620       Zr621   2.407       .  S
O620        C624   1.285       .  A
Zr621       O622   2.340       .  S
Zr621       O623   2.337       .  S
Zr621       O631   2.339       .  S
Zr621       O629   2.344       .  S
O622       Zr648   2.343       .  S
O622       Zr651   2.341       .  S
O623       Zr649   2.338       .  S
O623       Zr650   2.338       .  S
H628        O629   0.965       .  S
O629       Zr648   2.340       .  S
O629       Zr650   2.339       .  S
H630        O631   0.965       .  S
O631       Zr649   2.343       .  S
O631       Zr651   2.337       .  S
O632       Zr648   2.459       .  S
O632        C655   1.298       .  A
O633       Zr649   2.482       .  S
O633        C656   1.300       .  A
O634       Zr650   2.481       .  S
O634        C657   1.299       .  A
O635       Zr651   2.459       .  S
O635        C658   1.298       .  A
O636       Zr651   2.476       .  S
O636        C659   1.299       .  A
O637       Zr650   2.455       .  S
O637        C660   1.297       .  A
O638       Zr652   2.481       .  S
O638        C661   1.300       .  A
O639       Zr652   2.458       .  S
O639        C662   1.297       .  A
O640       Zr650   2.405       .  S
O640        C661   1.286       .  A
O641       Zr651   2.412       .  S
O641        C662   1.286       .  A
O642       Zr648   2.406       .  S
O642        C657   1.286       .  A
O643       Zr649   2.408       .  S
O643        C660   1.285       .  A
O644       Zr649   2.407       .  S
O644        C659   1.286       .  A
O645       Zr648   2.414       .  S
O645        C658   1.286       .  A
O646       Zr652   2.414       .  S
O646        C655   1.286       .  A
O647       Zr652   2.410       .  S
O647        C656   1.287       .  A
Zr648       O654   2.343       .  S
Zr648       O666   2.337       .  S
Zr649       O653   2.338       .  S
Zr649       O664   2.341       .  S
Zr650       O654   2.340       .  S
Zr650       O664   2.344       .  S
Zr651       O653   2.344       .  S
Zr651       O666   2.338       .  S
Zr652       O653   2.343       .  S
Zr652       O654   2.343       .  S
Zr652       O666   2.340       .  S
Zr652       O664   2.338       .  S
H663        O664   0.965       .  S
H665        O666   0.965       .  S
O667       Zr703   2.492       .  S
O667        C678   1.303       .  A
O668       Zr702   2.511       .  S
O668        C679   1.305       .  A
O669       Zr675   2.475       .  S
O669        C680   1.300       .  A
O670       Zr675   2.487       .  S
O670        C681   1.301       .  A
O671       Zr705   2.401       .  S
O671        C681   1.286       .  A
O672       Zr704   2.409       .  S
O672        C680   1.285       .  A
O673       Zr675   2.362       .  S
O673        C679   1.276       .  A
O674       Zr675   2.388       .  S
O674        C678   1.280       .  A
Zr675       O676   2.342       .  S
Zr675       O677   2.325       .  S
Zr675       O685   2.344       .  S
Zr675       O683   2.338       .  S
O676       Zr702   2.338       .  S
O676       Zr705   2.342       .  S
O677       Zr703   2.330       .  S
O677       Zr704   2.339       .  S
H682        O683   0.966       .  S
O683       Zr702   2.345       .  S
O683       Zr704   2.344       .  S
H684        O685   0.966       .  S
O685       Zr703   2.347       .  S
O685       Zr705   2.356       .  S
O686       Zr702   2.494       .  S
O686        C709   1.304       .  A
O687       Zr703   2.519       .  S
O687        C710   1.306       .  A
O688       Zr704   2.519       .  S
O688        C711   1.307       .  A
O689       Zr705   2.513       .  S
O689        C712   1.309       .  A
O690       Zr705   2.519       .  S
O690        C713   1.307       .  A
O691       Zr704   2.512       .  S
O691        C714   1.308       .  A
O692       Zr706   2.489       .  S
O692        C715   1.302       .  A
O693       Zr706   2.481       .  S
O693        C716   1.301       .  A
O694       Zr704   2.401       .  S
O694        C715   1.286       .  A
O695       Zr705   2.409       .  S
O695        C716   1.285       .  A
O696       Zr702   2.363       .  S
O696        C711   1.277       .  A
O697       Zr703   2.383       .  S
O697        C714   1.280       .  A
O698       Zr703   2.359       .  S
O698        C713   1.276       .  A
O699       Zr702   2.382       .  S
O699        C712   1.280       .  A
O700       Zr706   2.394       .  S
O700        C709   1.281       .  A
O701       Zr706   2.365       .  S
O701        C710   1.276       .  A
Zr702       O708   2.341       .  S
Zr702       O720   2.330       .  S
Zr703       O707   2.344       .  S
Zr703       O718   2.335       .  S
Zr704       O708   2.355       .  S
Zr704       O718   2.342       .  S
Zr705       O707   2.345       .  S
Zr705       O720   2.340       .  S
Zr706       O707   2.337       .  S
Zr706       O708   2.344       .  S
Zr706       O720   2.324       .  S
Zr706       O718   2.346       .  S
H717        O718   0.965       .  S
H719        O720   0.965       .  S
C721        C726   1.408       .  A
C721        C722   1.400       .  A
C721        O727   1.312       .  A
C722        C723   1.391   1_565  A
C722        H733   1.083       .  S
C723        C732   1.353       .  A
C723        C724   1.373       .  A
C724        C725   1.393   1_545  A
C724        O730   1.316       .  A
C725        C726   1.407       .  A
C725        H734   1.083       .  S
C726        C729   1.366       .  A
O727        C728   1.319       .  A
C728        C729   1.388       .  A
C729        H735   1.085       .  S
O730        C731   1.327   1_554  A
C731        C732   1.387   1_556  A
C732        H736   1.083   1_554  S
C737        C742   1.408       .  A
C737        C738   1.400       .  A
C737        O743   1.311       .  A
C738        C739   1.391   1_455  A
C738        H749   1.083   1_455  S
C739        C748   1.353       .  A
C739        C740   1.373       .  A
C740        C741   1.393   1_655  A
C740        O746   1.315       .  A
C741        C742   1.406       .  A
C741        H750   1.083   1_455  S
C742        C745   1.366       .  A
O743        C744   1.319   1_455  A
C744        C745   1.388   1_655  A
C745        H751   1.085       .  S
O746        C747   1.327       .  A
C747        C748   1.387       .  A
C748        H752   1.083       .  S
C753        C758   1.407       .  A
C753        C754   1.401       .  A
C753        O759   1.312       .  A
C754        C755   1.392       .  A
C754        H765   1.083       .  S
C755        C764   1.354       .  A
C755        C756   1.373       .  A
C756        C757   1.393       .  A
C756        O762   1.315       .  A
C757        C758   1.406       .  A
C757        H766   1.083       .  S
C758        C761   1.366       .  A
O759        C760   1.320       .  A
C760        C761   1.387       .  A
C761        H767   1.085       .  S
O762        C763   1.327   1_556  A
C763        C764   1.388   1_554  A
C764        H768   1.083   1_556  S
C769        C774   1.373       .  A
C769        C770   1.393       .  A
C769        O775   1.316       .  A
C770        C771   1.406   1_556  A
C770        H781   1.083       .  S
C771        C780   1.367   1_554  A
C771        C772   1.409       .  A
C772        C773   1.401   1_554  A
C772        O778   1.311   1_554  A
C773        C774   1.391       .  A
C773        H782   1.083       .  S
C774        C777   1.352       .  A
O775        C776   1.327       .  A
C776        C777   1.388       .  A
C777        H783   1.083       .  S
O778        C779   1.319       .  A
C779        C780   1.387       .  A
C780        H784   1.085       .  S
C785        C790   1.373       .  A
C785        C786   1.393       .  A
C785        O791   1.314   1_545  A
C786        C787   1.405       .  A
C786        H797   1.083       .  S
C787        C796   1.367       .  A
C787        C788   1.408       .  A
C788        C789   1.402       .  A
C788        O794   1.311       .  A
C789        C790   1.392       .  A
C789        H798   1.083       .  S
C790        C793   1.355   1_545  A
O791        C792   1.327       .  A
C792        C793   1.388       .  A
C793        H799   1.083       .  S
O794        C795   1.320       .  A
C795        C796   1.387       .  A
C796        H800   1.085       .  S
C801        C806   1.408       .  A
C801        C802   1.402   1_556  A
C801        O807   1.312   1_556  A
C802        C803   1.392       .  A
C802        H813   1.083       .  S
C803        C812   1.356   1_655  A
C803        C804   1.373       .  A
C804        C805   1.392       .  A
C804        O810   1.314   1_655  A
C805        C806   1.405   1_554  A
C805        H814   1.083       .  S
C806        C809   1.366   1_556  A
O807        C808   1.320       .  A
C808        C809   1.386       .  A
C809        H815   1.085       .  S
O810        C811   1.326       .  A
C811        C812   1.388       .  A
C812        H816   1.083       .  S
C817        C822   1.373   1_455  A
C817        C818   1.393       .  A
C817        O823   1.316       .  A
C818        C819   1.406       .  A
C818        H829   1.083       .  S
C819        C828   1.366       .  A
C819        C820   1.408   1_455  A
C820        C821   1.401       .  A
C820        O826   1.312       .  A
C821        C822   1.392       .  A
C821        H830   1.083       .  S
C822        C825   1.353       .  A
O823        C824   1.327       .  A
C824        C825   1.388   1_455  A
C825        H831   1.083       .  S
O826        C827   1.320   1_655  A
C827        C828   1.387       .  A
C828        H832   1.085       .  S
C833        C838   1.373   1_455  A
C833        C834   1.392       .  A
C833        O839   1.314       .  A
C834        C835   1.405       .  A
C834        H845   1.083       .  S
C835        C844   1.367       .  A
C835        C836   1.408   1_455  A
C836        C837   1.402       .  A
C836        O842   1.312       .  A
C837        C838   1.392       .  A
C837        H846   1.083       .  S
C838        C841   1.355       .  A
O839        C840   1.326       .  A
C840        C841   1.388   1_455  A
C841        H847   1.083       .  S
O842        C843   1.320   1_655  A
C843        C844   1.387       .  A
C844        H848   1.085       .  S
C849        C854   1.407       .  A
C849        C850   1.401   1_565  A
C849        O855   1.312   1_565  A
C850        C851   1.392   1_545  A
C850        H861   1.083       .  S
C851        C860   1.355   1_565  A
C851        C852   1.373       .  A
C852        C853   1.393       .  A
C852        O858   1.314       .  A
C853        C854   1.406       .  A
C853        H862   1.083       .  S
C854        C857   1.366       .  A
O855        C856   1.320   1_545  A
C856        C857   1.387       .  A
C857        H863   1.085       .  S
O858        C859   1.327       .  A
C859        C860   1.387   1_565  A
C860        H864   1.083       .  S
C865        C870   1.408   1_565  A
C865        C866   1.402       .  A
C865        O871   1.312       .  A
C866        C867   1.392       .  A
C866        H877   1.083       .  S
C867        C876   1.356       .  A
C867        C868   1.373       .  A
C868        C869   1.392   1_565  A
C868        O874   1.313   1_565  A
C869        C870   1.405       .  A
C869        H878   1.084       .  S
C870        C873   1.366       .  A
O871        C872   1.320       .  A
C872        C873   1.387   1_565  A
C873        H879   1.085       .  S
O874        C875   1.327   1_545  A
C875        C876   1.387       .  A
C876        H880   1.083       .  S
C881        C886   1.408   1_556  A
C881        C882   1.402       .  A
C881        O887   1.312       .  A
C882        C883   1.392       .  A
C882        H893   1.083       .  S
C883        C892   1.356       .  A
C883        C884   1.373   1_556  A
C884        C885   1.392       .  A
C884        O890   1.313       .  A
C885        C886   1.405       .  A
C885        H894   1.084       .  S
C886        C889   1.366       .  A
O887        C888   1.320   1_556  A
C888        C889   1.387       .  A
C889        H895   1.085       .  S
O890        C891   1.326   1_554  A
C891        C892   1.387       .  A
C892        H896   1.083       .  S
C897        C902   1.408   1_554  A
C897        C898   1.403       .  A
C897        O903   1.312       .  A
C898        C899   1.392       .  A
C898        H909   1.083       .  S
C899        C908   1.357       .  A
C899        C900   1.373   1_554  A
C900        C901   1.392       .  A
C900        O906   1.313       .  A
C901        C902   1.405       .  A
C901        H910   1.084       .  S
C902        C905   1.366       .  A
O903        C904   1.320   1_554  A
C904        C905   1.386       .  A
C905        H911   1.085       .  S
O906        C907   1.326   1_556  A
C907        C908   1.388       .  A
C908        H912   1.083       .  S
