geometry optimzed in LAMMPS
_audit_creation_date              2020-11-30 
_audit_creation_method            'lammps2cif' 
_symmetry_space_group_name_H-M    'P1' 
_symmetry_Int_Tables_number       1 
_symmetry_cell_setting            triclinic 
loop_ 
_symmetry_equiv_pos_as_xyz 
  x,y,z 
_cell_length_a                    39.91057644 
_cell_length_b                    40.39944523106151 
_cell_length_c                    42.50339364952708 
_cell_angle_alpha                 90.95543079266761 
_cell_angle_beta                  89.76096357685687 
_cell_angle_gamma                 117.92475397300275 
loop_ 
_atom_site_label 
_atom_site_type_symbol 
_atom_site_fract_x 
_atom_site_fract_y 
_atom_site_fract_z 
_atom_site_charge 
Fe1        Fe  0.21938553  0.38794568  0.00370809     1.65800
Fe2        Fe  0.12404292  0.34093857  0.49877855     1.73200
Fe3        Fe  0.17558725  0.29277420  0.50194050     1.54400
O4          O  0.21734071  0.30904217  0.46791493    -0.79000
O5          O  0.09817198  0.29694542  0.03290183    -0.77300
O6          O  0.24727170  0.37167070  0.46878777    -0.81500
O7          O  0.24171013  0.37243243  0.04082953    -0.76300
O8          O  0.13546964  0.26744599  0.46683103    -0.78100
O9          O  0.13501504  0.37784187  0.03545964    -0.80800
C10         C  0.23951215  0.34149706  0.04896713     0.99900
C11         C  0.24297855  0.34033926  0.45839818     1.07400
O12         O  0.17366179  0.34089008  0.50100344    -1.09800
O13         O  0.14115291  0.37874291  0.46261532    -0.72300
O14         O  0.20413901  0.41204389  0.46704638    -0.75800
O15         O  0.21721273  0.31040379  0.03610981    -0.76400
C16         C  0.17284379  0.40509323  0.45426327     0.98800
O17         O  0.19801703  0.41174205  0.03615878    -0.74400
O18         O  0.10125172  0.29791571  0.46548364    -0.79600
C19         C  0.10667942  0.27345433  0.04529762     1.01400
C20         C  0.10809267  0.27166515  0.45633539     1.07400
O21         O  0.13563226  0.26996097  0.03763377    -0.75200
C22         C  0.16540254  0.40475439  0.04600551     1.05700
Fe23       Fe  0.37845038  0.15460258  0.49417610     1.65800
Fe24       Fe  0.28118281  0.11494704  0.49468341     1.73200
Fe25       Fe  0.33037971  0.20968844  0.99310852     1.54400
O26         O  0.37252138  0.23104888  0.02695756    -0.79000
O27         O  0.25850107  0.13421253  0.46021067    -0.77300
O28         O  0.39575777  0.19095067  0.03267187    -0.81500
O29         O  0.40459949  0.19383900  0.45958851    -0.76300
O30         O  0.29143295  0.19859425  0.02851678    -0.78100
O31         O  0.29527763  0.08767208  0.45966061    -0.80800
C32         C  0.40005432  0.22032239  0.44837349     0.99900
C33         C  0.39452586  0.22083468  0.04007798     1.07400
O34         O  0.32584794  0.15880628  0.99378324    -1.09800
O35         O  0.28599518  0.08921135  0.02930883    -0.72300
O36         O  0.34877623  0.11109757  0.02966294    -0.75800
O37         O  0.37463527  0.22852967  0.45762701    -0.76400
C38         C  0.31582938  0.08994021  0.04004034     0.98800
O39         O  0.35857623  0.11386359  0.45935319    -0.74400
O40         O  0.25207996  0.13729746  0.02356095    -0.79600
C41         C  0.26598069  0.16592307  0.44930049     1.01400
C42         C  0.26184078  0.16923140  0.03604194     1.07400
O43         O  0.29366318  0.19625078  0.45869333    -0.75200
C44         C  0.32617755  0.09025637  0.44915901     1.05700
C45         C  0.45925632  0.49772990  0.13550224     0.05000
C46         C  0.99299505  0.03194032  0.13695242     0.05000
C47         C  0.02857028  0.03207278  0.13479119     0.05000
C48         C  0.03026061  0.49779898  0.13070739     0.05000
C49         C  0.99632201  0.46344589  0.12989050     0.05000
C50         C  0.46079245  0.46382585  0.13084601     0.05000
C51         C  0.30445459  0.47212900  0.13954515     0.82900
N52         N  0.34102678  0.47820200  0.14042408    -0.75400
C53         C  0.36825352  0.00561785  0.12315366     0.85400
N54         N  0.35846128  0.02672522  0.10478348    -0.75300
C55         C  0.32227399  0.02095688  0.10388964     0.85500
N56         N  0.29515818  0.99343775  0.12118196    -0.77000
C57         C  0.19501812  0.02671986  0.14863251     0.82900
N58         N  0.16305036  0.02985162  0.15367976    -0.75400
C59         C  0.13088079  0.00792609  0.13736561     0.85400
N60         N  0.13076745  0.48199777  0.11638690    -0.75300
C61         C  0.16258276  0.47836252  0.11160026     0.85500
N62         N  0.19487621  0.00118474  0.12739283    -0.77000
C63         C  0.18292627  0.16243119  0.09878159     0.82900
N64         N  0.15263880  0.12782456  0.09821376    -0.75400
C65         C  0.12298706  0.11956777  0.11775341     0.85400
N66         N  0.12359238  0.14650381  0.13780868    -0.75300
C67         C  0.15384271  0.18140183  0.13813227     0.85500
N68         N  0.18358596  0.18930183  0.11867295    -0.77000
C69         C  0.48399219  0.17011938  0.14097502     0.82900
N70         N  0.50881053  0.19914436  0.12344972    -0.75400
C71         C  0.03316904  0.19430011  0.10443539     0.85400
N72         N  0.03289002  0.16058068  0.10260912    -0.75300
C73         C  0.50889625  0.13183234  0.12039273     0.85500
N74         N  0.48421304  0.13667702  0.13954518    -0.77000
C75         C  0.31335060  0.33898682  0.11328774     0.82900
N76         N  0.34779889  0.36933167  0.11773075    -0.75400
C77         C  0.37359923  0.36746262  0.13747306     0.85400
N78         N  0.36473621  0.33522535  0.15252157    -0.75300
C79         C  0.33062167  0.30484154  0.14781223     0.85500
N80         N  0.30474156  0.30658501  0.12827709    -0.77000
C81         C  0.01682257  0.33211025  0.13594714     0.82900
N82         N  0.99388269  0.30118036  0.11856612    -0.75400
C83         C  0.46697134  0.30209059  0.09939126     0.85400
N84         N  0.46397488  0.33402070  0.09671346    -0.75300
C85         C  0.98729792  0.36505399  0.11370890     0.85500
N86         N  0.01333389  0.36385094  0.13360300    -0.77000
Fe87       Fe  0.34716352  0.12272185  0.25088382     1.65800
Fe88       Fe  0.28771386  0.16254291  0.25262438     1.73200
Fe89       Fe  0.38411863  0.21835534  0.24918067     1.54400
O90         O  0.41318543  0.20720207  0.28396205    -0.79000
O91         O  0.29746895  0.20005277  0.21731331    -0.77300
O92         O  0.38860457  0.14490307  0.28529986    -0.81500
O93         O  0.38721537  0.14186404  0.21561876    -0.76300
O94         O  0.36372277  0.24016476  0.28371250    -0.78100
O95         O  0.26736802  0.12060053  0.21882138    -0.80800
C96         C  0.40956400  0.17353298  0.20451189     0.99900
C97         C  0.41158917  0.17760306  0.29508592     1.07400
O98         O  0.33966265  0.16786212  0.25088338    -1.09800
O99         O  0.27086163  0.12428670  0.28804317    -0.72300
O100        O  0.30809992  0.09692712  0.28616037    -0.75800
O101        O  0.41105970  0.20391827  0.21430323    -0.76400
C102        C  0.28059734  0.10054561  0.29754625     0.98800
O103        O  0.30648535  0.09526081  0.21647871    -0.74400
O104        O  0.30120409  0.20378979  0.28671714    -0.79600
C105        C  0.32675165  0.22633120  0.20545907     1.01400
C106        C  0.33165209  0.23190180  0.29543431     1.07400
O107        O  0.36024272  0.23554930  0.21445527    -0.75200
C108        C  0.27727316  0.09732258  0.20749403     1.05700
Fe109      Fe  0.11216202  0.28436069  0.24638873     1.65800
Fe110      Fe  0.20951226  0.32940160  0.24255063     1.73200
Fe111      Fe  0.16063251  0.38047592  0.24416389     1.54400
O112        O  0.11929656  0.36328181  0.20934614    -0.79000
O113        O  0.23517955  0.37170938  0.27577731    -0.77300
O114        O  0.08656703  0.30091688  0.21212363    -0.81500
O115        O  0.09025540  0.30399095  0.28181010    -0.76300
O116        O  0.20150241  0.40238822  0.20941360    -0.78100
O117        O  0.19485527  0.29146099  0.27853636    -0.80800
C118        C  0.09542067  0.33598619  0.29105699     0.99900
C119        C  0.09246244  0.33188824  0.20044999     1.07400
O120        O  0.16078301  0.33142403  0.24430807    -1.09800
O121        O  0.19029884  0.28658037  0.20914370    -0.72300
O122        O  0.12710143  0.25779897  0.21142149    -0.75800
O123        O  0.12011982  0.36626640  0.27924241    -0.76400
C124        C  0.15800874  0.26119091  0.20029150     0.98800
O125        O  0.13163292  0.26187095  0.28081681    -0.74400
O126        O  0.23125627  0.36746976  0.20658098    -0.79600
C127        C  0.22922938  0.39760948  0.28729639     1.01400
C128        C  0.22655332  0.39486184  0.19786186     1.07400
O129        O  0.20196336  0.40336999  0.27882720    -0.75200
C130        C  0.16395649  0.26716538  0.29012114     1.05700
C131        C  0.47032071  0.00397004  0.39340219     0.05000
C132        C  0.46997462  0.46900114  0.39068221     0.05000
C133        C  0.00449812  0.46701730  0.38753785     0.05000
C134        C  0.03936406  0.50016780  0.39005458     0.03400
C135        C  0.04011796  0.03575747  0.39424649     0.05000
C136        C  0.00556320  0.03758656  0.39609283     0.05000
C137        C  0.20199749  0.03023187  0.35741437     0.82900
N138        N  0.17000954  0.03406200  0.35631272    -0.75400
C139        C  0.13858223  0.51012703  0.37269375     0.85400
N140        N  0.13990774  0.48326431  0.39067854    -0.75300
C141        C  0.17175404  0.47921846  0.39159504     0.85500
N142        N  0.20267027  0.50229646  0.37477395    -0.77000
C143        C  0.30928156  0.46781806  0.34962052     0.82900
N144        N  0.30376928  0.99199675  0.36804078    -0.75400
C145        C  0.33193145  0.01588741  0.38742863     0.85400
N146        N  0.36535045  0.01479395  0.38867169    -0.75300
C147        C  0.37094834  0.99002425  0.37031097     0.85500
N148        N  0.34286316  0.46689741  0.35062582    -0.77000
C149        C  0.48145546  0.17166864  0.36054848     0.82900
N150        N  0.50881215  0.19898347  0.37850781    -0.75400
C151        C  0.03006437  0.19055990  0.39849400     0.85400
N152        N  0.02441107  0.15461746  0.39983978    -0.75300
C153        C  0.49725458  0.12709910  0.38118520     0.85500
N154        N  0.47600549  0.13606046  0.36181975    -0.77000
C155        C  0.18668215  0.16556558  0.38936816     0.82900
N156        N  0.15252613  0.13444096  0.39092656    -0.75400
C157        C  0.12280419  0.13159011  0.37353461     0.85400
N158        N  0.12744971  0.16008551  0.35458690    -0.75300
C159        C  0.16140375  0.19142260  0.35314744     0.85500
N160        N  0.19118812  0.19422461  0.37051189    -0.77000
C161        C  0.02219758  0.33649310  0.35833384     0.82900
N162        N  0.99883139  0.30364218  0.37233578    -0.75400
C163        C  0.47294570  0.30279990  0.39357478     0.85400
N164        N  0.47076899  0.33442715  0.40124634    -0.75300
C165        C  0.99367659  0.36690203  0.38733808     0.85500
N166        N  0.01949151  0.36803084  0.36573547    -0.77000
C167        C  0.32110736  0.34232035  0.39551960     0.82900
N168        N  0.31352280  0.31192897  0.37703310    -0.75400
C169        C  0.34020742  0.31264304  0.35684596     0.85400
N170        N  0.37432909  0.34368237  0.35497729    -0.75300
C171        C  0.38222952  0.37404462  0.37356406     0.85500
N172        N  0.35547913  0.37329907  0.39393396    -0.77000
C173        C  0.00706846  0.07494428  0.40117692    -0.13700
C174        C  0.49120601  0.08813578  0.38031339    -0.28900
H175        H  0.52554458  0.09306897  0.41925906     0.15300
H176        H  0.97398479  0.07038965  0.36152499     0.15900
C177        C  0.07712319  0.07060411  0.39553974    -0.13700
C178        C  0.08563445  0.09785723  0.37450988    -0.28900
H179        H  0.09843895  0.07227169  0.41219275     0.15300
H180        H  0.06458696  0.09516590  0.35713548     0.15900
C181        C  0.41971962  0.40730790  0.37111289    -0.13700
C182        C  0.43304572  0.43432384  0.39340325    -0.28900
H183        H  0.43697956  0.40940155  0.35066668     0.15300
H184        H  0.41522762  0.43267152  0.41334392     0.15900
C185        C  0.43393929  0.00615249  0.39349183    -0.13700
C186        C  0.40725673  0.98870092  0.37111450    -0.28900
H187        H  0.43005463  0.02375742  0.41118902     0.15300
H188        H  0.41202410  0.47266603  0.35286796     0.15900
C189        C  0.10421902  0.51503278  0.37158832    -0.13700
C190        C  0.07497493  0.49678711  0.39114138    -0.28900
H191        H  0.10298444  0.53407178  0.35447171     0.15300
H192        H  0.07619005  0.97739693  0.40771441     0.15900
C193        C  0.99021304  0.40072665  0.39610004    -0.13700
C194        C  0.00578063  0.43172952  0.37878105    -0.28900
H195        H  0.47411820  0.40013852  0.41699704     0.15300
H196        H  0.02271268  0.43265231  0.35840548     0.15900
C197        C  0.16536586  0.22111144  0.33283776    -0.10600
C198        C  0.16559319  0.24347764  0.31425767    -0.12100
C199        C  0.04949103  0.33774152  0.33545123    -0.10600
C200        C  0.07137686  0.33776154  0.31568722    -0.12100
C201        C  0.25555076  0.42217228  0.31052427    -0.10600
C202        C  0.27962470  0.44292039  0.32874351    -0.12100
C203        C  0.45861089  0.17981041  0.33929853    -0.10600
C204        C  0.43751801  0.18101639  0.31969535    -0.12100
C205        C  0.23409335  0.05439858  0.33907894    -0.10600
C206        C  0.25784808  0.07550212  0.32142833    -0.12100
C207        C  0.33007734  0.25657307  0.31915405    -0.10600
C208        C  0.33269828  0.28081130  0.33728981    -0.12100
C209        C  0.06681142  0.33138764  0.17643234    -0.10600
C210        C  0.04424424  0.33121152  0.15742908    -0.12100
C211        C  0.32247936  0.27152921  0.16430709    -0.10600
C212        C  0.32193542  0.24813012  0.18160633    -0.12100
C213        C  0.45769599  0.17445718  0.16150462    -0.10600
C214        C  0.43529233  0.17505849  0.18027841    -0.12100
C215        C  0.15468659  0.21001093  0.15913980    -0.10600
C216        C  0.15626015  0.23405241  0.17720951    -0.12100
C217        C  0.22846396  0.05020676  0.16645752    -0.10600
C218        C  0.25309731  0.07137522  0.18399420    -0.12100
C219        C  0.25228444  0.41989379  0.17497682    -0.10600
C220        C  0.27580161  0.44305552  0.15814789    -0.12100
C221        C  0.06371454  0.06849884  0.13840476    -0.13700
C222        C  0.09033430  0.08168748  0.11603494    -0.28900
H223        H  0.06549263  0.08639424  0.15838854     0.15300
H224        H  0.08792877  0.06423969  0.09555564     0.15900
C225        C  0.49148769  0.06810046  0.13937955    -0.13700
C226        C  0.50944928  0.09563330  0.11855178    -0.28900
H227        H  0.47375792  0.07109827  0.15746648     0.15300
H228        H  0.02507698  0.09148245  0.09942036     0.15900
C229        C  0.09647277  0.01192588  0.14357614    -0.13700
C230        C  0.06640135  0.49644082  0.12450312    -0.28900
H231        H  0.09620110  0.52793567  0.16429539     0.15300
H232        H  0.06612307  0.97910734  0.10468427     0.15900
C233        C  0.99930634  0.42803307  0.13159103    -0.13700
C234        C  0.98283246  0.39925773  0.11104984    -0.28900
H235        H  0.01781393  0.42692788  0.14976244     0.15300
H236        H  0.46444072  0.40026755  0.09226896     0.15900
C237        C  0.42459678  0.42954098  0.12439120    -0.13700
C238        C  0.41103623  0.39986874  0.14310446    -0.28900
H239        H  0.40727135  0.43054030  0.10515074     0.15300
H240        H  0.42795781  0.39922698  0.16280760     0.15900
C241        C  0.42136788  0.49572506  0.14073096    -0.13700
C242        C  0.40788802  0.01225865  0.12205645    -0.28900
H243        H  0.40318431  0.97660551  0.15900993     0.15300
H244        H  0.42561731  0.53047004  0.10322161     0.15900
C245        C  0.32471382  0.06430037  0.42524464    -0.10600
C246        C  0.32649098  0.04206740  0.40704584    -0.12100
C247        C  0.31340476  0.04372862  0.08372249    -0.10600
C248        C  0.31226569  0.06479999  0.06462947    -0.12100
C249        C  0.21754350  0.16799818  0.40826683    -0.10600
C250        C  0.24095403  0.16766964  0.42595322    -0.12100
C251        C  0.42618949  0.24387424  0.42526350    -0.10600
C252        C  0.44825736  0.26868987  0.40899618    -0.12100
C253        C  0.23754968  0.17191980  0.05958969    -0.10600
C254        C  0.21402828  0.17005074  0.07823160    -0.12100
C255        C  0.44218616  0.26964479  0.08105822    -0.10600
C256        C  0.42026873  0.24537863  0.06360530    -0.12100
C257        C  0.05914782  0.21976643  0.41744203    -0.10600
C258        C  0.08245348  0.24423034  0.43409885    -0.12100
C259        C  0.08139366  0.24834139  0.06826484    -0.10600
C260        C  0.05939733  0.22470168  0.08558540    -0.12100
C261        C  0.17304412  0.45152197  0.41143517    -0.10600
C262        C  0.17320638  0.42932067  0.42990225    -0.12100
C263        C  0.29280296  0.34147406  0.41687236    -0.10600
C264        C  0.26928808  0.34052175  0.43523462    -0.12100
C265        C  0.16295198  0.42917021  0.06988795    -0.10600
C266        C  0.16228597  0.45118389  0.08913759    -0.12100
C267        C  0.28640235  0.34085282  0.09214986    -0.10600
C268        C  0.26435785  0.34163931  0.07327770    -0.12100
Fe269      Fe  0.22135347  0.38902085  0.50250703     1.65800
Fe270      Fe  0.12218738  0.33848807  0.99951537     1.73200
Fe271      Fe  0.17517115  0.29181999  0.00216985     1.54400
O272        O  0.21499121  0.30848332  0.96666438    -0.79000
O273        O  0.10141397  0.30337191  0.53474712    -0.77300
O274        O  0.24736875  0.37081970  0.97151538    -0.81500
O275        O  0.24516202  0.37270858  0.53815437    -0.76300
O276        O  0.13330160  0.26541407  0.96855263    -0.78100
O277        O  0.13879776  0.38350243  0.53207976    -0.80800
C278        C  0.24042442  0.34150500  0.54825169     0.99900
C279        C  0.24200406  0.33995187  0.95910714     1.07400
O280        O  0.17220124  0.33940922  0.00176712    -1.09800
O281        O  0.13991199  0.37987042  0.96569490    -0.72300
O282        O  0.20322608  0.40987442  0.96686526    -0.75800
O283        O  0.21566002  0.31027917  0.53733755    -0.76400
C284        C  0.17173062  0.40477093  0.95578873     0.98800
O285        O  0.20179193  0.41258581  0.53652827    -0.74400
O286        O  0.10215052  0.29864940  0.96357971    -0.79600
C287        C  0.10804316  0.27814974  0.54593482     1.01400
C288        C  0.10768290  0.27107743  0.95615060     1.07400
O289        O  0.13430213  0.27129890  0.53619043    -0.75200
C290        C  0.16936518  0.40821199  0.54437335     1.05700
Fe291      Fe  0.37199633  0.15242207  0.99631866     1.65800
Fe292      Fe  0.27509007  0.11435932  0.99194239     1.73200
Fe293      Fe  0.33488938  0.21052095  0.49286729     1.54400
O294        O  0.37656441  0.23181419  0.52677222    -0.79000
O295        O  0.25757325  0.13389819  0.95448593    -0.77300
O296        O  0.40399244  0.19478720  0.52909519    -0.81500
O297        O  0.40114154  0.19309846  0.96327374    -0.76300
O298        O  0.29568903  0.19925350  0.52821380    -0.78100
O299        O  0.29128351  0.08526169  0.96015618    -0.80800
C300        C  0.39642954  0.21884587  0.95059689     0.99900
C301        C  0.40062304  0.22312915  0.53809234     1.07400
O302        O  0.33151154  0.16000546  0.49390678    -1.09800
O303        O  0.29633655  0.08889388  0.52924395    -0.72300
O304        O  0.35938793  0.11454849  0.52874070    -0.75800
O305        O  0.36993210  0.22639733  0.95785282    -0.76400
C306        C  0.32728119  0.09124996  0.53917408     0.98800
O307        O  0.35453550  0.11313293  0.96038414    -0.74400
O308        O  0.26127734  0.13699097  0.52980361    -0.79600
C309        C  0.26391641  0.16625858  0.94629234     1.01400
C310        C  0.26926844  0.16972064  0.53950689     1.07400
O311        O  0.28892975  0.19617784  0.95905381    -0.75200
C312        C  0.32263433  0.08844226  0.95027301     1.05700
C313        C  0.46328286  0.50295150  0.62022781     0.05000
C314        C  0.99708843  0.03641868  0.62612423     0.05000
C315        C  0.03217383  0.03575331  0.62767250     0.05000
C316        C  0.03346030  0.50139815  0.62469064     0.05000
C317        C  0.99919087  0.46746039  0.62269368     0.05000
C318        C  0.46383701  0.46815540  0.61944617     0.05000
C319        C  0.29685383  0.46697212  0.63846661     0.82900
N320        N  0.32989520  0.46584856  0.64258188    -0.75400
C321        C  0.36147504  0.98951332  0.62693732     0.85400
N322        N  0.36007780  0.01470141  0.60681534    -0.75300
C323        C  0.32704677  0.01614760  0.60245720     0.85500
N324        N  0.29527868  0.99219682  0.61808795    -0.77000
C325        C  0.19668934  0.02898310  0.64738979     0.82900
N326        N  0.16455645  0.03197712  0.65182718    -0.75400
C327        C  0.13278066  0.00990153  0.63513198     0.85400
N328        N  0.13391636  0.48505551  0.61386930    -0.75300
C329        C  0.16592319  0.48164876  0.60966497     0.85500
N330        N  0.19713407  0.00351470  0.62641341    -0.77000
C331        C  0.19007343  0.16530345  0.60069085     0.82900
N332        N  0.15966597  0.13087347  0.59869388    -0.75400
C333        C  0.12818171  0.12271658  0.61580732     0.85400
N334        N  0.12696143  0.14958169  0.63481125    -0.75300
C335        C  0.15723089  0.18438581  0.63656316     0.85500
N336        N  0.18893537  0.19224994  0.61953015    -0.77000
C337        C  0.48576509  0.17196159  0.64190137     0.82900
N338        N  0.51008222  0.20256669  0.62567432    -0.75400
C339        C  0.03650821  0.20089440  0.60597264     0.85400
N340        N  0.03722196  0.16791711  0.60196892    -0.75300
C341        C  0.51237273  0.13666082  0.61818730     0.85500
N342        N  0.48701058  0.13913288  0.63823583    -0.77000
C343        C  0.31629634  0.34072673  0.61140205     0.82900
N344        N  0.35059684  0.37167830  0.61361311    -0.75400
C345        C  0.37793159  0.37202876  0.63277216     0.85400
N346        N  0.37074210  0.34124827  0.64962799    -0.75300
C347        C  0.33668026  0.31008927  0.64716570     0.85500
N348        N  0.30931075  0.30977719  0.62810009    -0.77000
C349        C  0.01579870  0.33502481  0.63701565     0.82900
N350        N  0.99396832  0.30399564  0.61947314    -0.75400
C351        C  0.46989670  0.30502635  0.59773974     0.85400
N352        N  0.46747164  0.33699597  0.59321411    -0.75300
C353        C  0.98914717  0.36825443  0.61094944     0.85500
N354        N  0.01330403  0.36704264  0.63286073    -0.77000
Fe355      Fe  0.34667364  0.12278279  0.75136197     1.65800
Fe356      Fe  0.28888738  0.16437985  0.75168881     1.73200
Fe357      Fe  0.38540622  0.21862383  0.75051328     1.54400
O358        O  0.41160233  0.20662485  0.78686424    -0.79000
O359        O  0.30163072  0.20587231  0.71878250    -0.77300
O360        O  0.38917250  0.14455455  0.78491113    -0.81500
O361        O  0.38561456  0.14084743  0.71529995    -0.76300
O362        O  0.36347957  0.24104802  0.78352832    -0.78100
O363        O  0.27049306  0.12576560  0.71530009    -0.80800
C364        C  0.41025705  0.17265147  0.70603472     0.99900
C365        C  0.41078354  0.17676988  0.79642439     1.07400
O366        O  0.34031954  0.16856368  0.75118324    -1.09800
O367        O  0.26840004  0.12229806  0.78457836    -0.72300
O368        O  0.30853724  0.09840511  0.78748107    -0.75800
O369        O  0.41375300  0.20328433  0.71738037    -0.76400
C370        C  0.27894808  0.09999082  0.79622311     0.98800
O371        O  0.30478422  0.09521859  0.71789956    -0.74400
O372        O  0.30151643  0.20247914  0.78827632    -0.79600
C373        C  0.33162830  0.23066384  0.70630644     1.01400
C374        C  0.33156964  0.23152529  0.79623760     1.07400
O375        O  0.36458523  0.23678171  0.71424160    -0.75200
C376        C  0.27823166  0.10008631  0.70628813     1.05700
Fe377      Fe  0.10863006  0.28315856  0.74539763     1.65800
Fe378      Fe  0.20580943  0.32940325  0.74138292     1.73200
Fe379      Fe  0.15619589  0.37942158  0.74721705     1.54400
O380        O  0.11229666  0.36269415  0.71501286    -0.79000
O381        O  0.23154995  0.36940508  0.77639910    -0.77300
O382        O  0.08433916  0.30022694  0.71077444    -0.81500
O383        O  0.08480764  0.30173394  0.78033021    -0.76300
O384        O  0.19323481  0.40157313  0.71032443    -0.78100
O385        O  0.19108611  0.28888366  0.77538001    -0.80800
C386        C  0.09197290  0.33301140  0.79294962     0.99900
C387        C  0.08796491  0.33186456  0.70290659     1.07400
O388        O  0.15688957  0.33065347  0.74468746    -1.09800
O389        O  0.18744724  0.28913938  0.70600179    -0.72300
O390        O  0.12469108  0.25686711  0.71064351    -0.75800
O391        O  0.11890981  0.36385116  0.78432971    -0.76400
C392        C  0.15566710  0.26230346  0.69808307     0.98800
O393        O  0.12793276  0.26108430  0.78002496    -0.74400
O394        O  0.22621764  0.36973154  0.70697065    -0.79600
C395        C  0.22685232  0.39599831  0.78800764     1.01400
C396        C  0.21871025  0.39535573  0.69802642     1.07400
O397        O  0.20021578  0.40276155  0.77966916    -0.75200
C398        C  0.16034727  0.26529556  0.78785257     1.05700
C399        C  0.46983667  0.00306781  0.89494672     0.05000
C400        C  0.46912223  0.46804597  0.89082918     0.05000
C401        C  0.00440225  0.46657263  0.88839185     0.05000
C402        C  0.03922419  0.49987047  0.89053595     0.03400
C403        C  0.03886742  0.03478393  0.89496385     0.05000
C404        C  0.00427870  0.03655298  0.89685602     0.05000
C405        C  0.20035675  0.02885952  0.85677668     0.82900
N406        N  0.16834268  0.03266440  0.85620362    -0.75400
C407        C  0.13879707  0.51041108  0.87347576     0.85400
N408        N  0.14040693  0.48395059  0.89179373    -0.75300
C409        C  0.17221959  0.47984529  0.89266039     0.85500
N410        N  0.20292728  0.50255879  0.87526568    -0.77000
C411        C  0.30776984  0.46600664  0.85025386     0.82900
N412        N  0.30259665  0.99037171  0.86975531    -0.75400
C413        C  0.33036067  0.01368096  0.88974597     0.85400
N414        N  0.36378619  0.01256957  0.89110849    -0.75300
C415        C  0.36976436  0.98834212  0.87230883     0.85500
N416        N  0.34149117  0.46533512  0.85115101    -0.77000
C417        C  0.47994918  0.17009859  0.86195128     0.82900
N418        N  0.50766980  0.19769810  0.87936028    -0.75400
C419        C  0.02978560  0.18972015  0.89878671     0.85400
N420        N  0.02387057  0.15370927  0.90035180    -0.75300
C421        C  0.49624611  0.12593149  0.88257511     0.85500
N422        N  0.47456423  0.13455068  0.86344234    -0.77000
C423        C  0.18477492  0.16510138  0.88663619     0.82900
N424        N  0.15082365  0.13389215  0.88916468    -0.75400
C425        C  0.12049870  0.13035774  0.87226529     0.85400
N426        N  0.12435983  0.15825175  0.85288865    -0.75300
C427        C  0.15817098  0.18962478  0.85056110     0.85500
N428        N  0.18849585  0.19309288  0.86739872    -0.77000
C429        C  0.01932151  0.33413112  0.86008674     0.82900
N430        N  0.99589581  0.30169797  0.87447423    -0.75400
C431        C  0.47035725  0.30121598  0.89638387     0.85400
N432        N  0.46845438  0.33311120  0.90362513    -0.75300
C433        C  0.99193884  0.36568888  0.88895326     0.85500
N434        N  0.01726051  0.36607055  0.86718423    -0.77000
C435        C  0.32015579  0.34192227  0.89614655     0.82900
N436        N  0.31253047  0.31125889  0.87796630    -0.75400
C437        C  0.33925063  0.31166307  0.85794144     0.85400
N438        N  0.37338733  0.34263383  0.85593509    -0.75300
C439        C  0.38130224  0.37322449  0.87419408     0.85500
N440        N  0.35456433  0.37281234  0.89439726    -0.77000
C441        C  0.00578981  0.07386932  0.90206702    -0.13700
C442        C  0.49023024  0.08702297  0.88185820    -0.28900
H443        H  0.52489300  0.09225861  0.92063500     0.15300
H444        H  0.97273952  0.06942606  0.86242994     0.15900
C445        C  0.07578257  0.06976119  0.89554973    -0.13700
C446        C  0.08356663  0.09646792  0.87411299    -0.28900
H447        H  0.09754464  0.07196997  0.91195899     0.15300
H448        H  0.06204502  0.09316412  0.85699312     0.15900
C449        C  0.41877947  0.40638180  0.87155522    -0.13700
C450        C  0.43217926  0.43350611  0.89372598    -0.28900
H451        H  0.43599924  0.40827681  0.85112398     0.15300
H452        H  0.41444321  0.43203210  0.91367644     0.15900
C453        C  0.43320837  0.00494402  0.89523280    -0.13700
C454        C  0.40625496  0.98721556  0.87305406    -0.28900
H455        H  0.42936423  0.02259812  0.91290923     0.15300
H456        H  0.41074529  0.47135810  0.85316586     0.15900
C457        C  0.10427850  0.51505833  0.87223937    -0.13700
C458        C  0.07497243  0.49672220  0.89172649    -0.28900
H459        H  0.10292812  0.53388714  0.85496230     0.15300
H460        H  0.07533020  0.97680036  0.90889103     0.15900
C461        C  0.98920086  0.39999965  0.89743291    -0.13700
C462        C  0.00569095  0.43108928  0.88021124    -0.28900
H463        H  0.47227889  0.39941944  0.91810511     0.15300
H464        H  0.02302210  0.43177034  0.86019974     0.15900
C465        C  0.16161688  0.21874604  0.82993971    -0.10600
C466        C  0.16210791  0.24124029  0.81145528    -0.12100
C467        C  0.04607978  0.33440675  0.83727452    -0.10600
C468        C  0.06766002  0.33371761  0.81764351    -0.12100
C469        C  0.25382632  0.42021495  0.81114709    -0.10600
C470        C  0.27806366  0.44095279  0.82933993    -0.12100
C471        C  0.45690349  0.17798248  0.84086214    -0.10600
C472        C  0.43602610  0.17939133  0.82123419    -0.12100
C473        C  0.23197827  0.05304557  0.83769101    -0.10600
C474        C  0.25528536  0.07451732  0.81977006    -0.12100
C475        C  0.32962671  0.25575233  0.82024202    -0.10600
C476        C  0.33179761  0.27971017  0.83852576    -0.12100
C477        C  0.06292429  0.33289296  0.67931170    -0.10600
C478        C  0.04150430  0.33393742  0.65993690    -0.12100
C479        C  0.32993290  0.27801646  0.66538432    -0.10600
C480        C  0.32856029  0.25428105  0.68291498    -0.12100
C481        C  0.45883144  0.17406854  0.66317077    -0.10600
C482        C  0.43621201  0.17401268  0.68205572    -0.12100
C483        C  0.15579097  0.21272640  0.65668238    -0.10600
C484        C  0.15506443  0.23590335  0.67462621    -0.12100
C485        C  0.22984341  0.05287160  0.66523437    -0.10600
C486        C  0.25431797  0.07431123  0.68268026    -0.12100
C487        C  0.24146141  0.41975638  0.67370457    -0.10600
C488        C  0.26439937  0.44161704  0.65589974    -0.12100
C489        C  0.06725158  0.07158797  0.63336361    -0.13700
C490        C  0.09548332  0.08514940  0.61241483    -0.28900
H491        H  0.06778438  0.08885120  0.65342946     0.15300
H492        H  0.09443826  0.06825353  0.59191419     0.15900
C493        C  0.49486415  0.07152608  0.63155760    -0.13700
C494        C  0.51434318  0.10148476  0.61363625    -0.28900
H495        H  0.47512127  0.07189244  0.64906910     0.15300
H496        H  0.03322186  0.10096017  0.59494448     0.15900
C497        C  0.09830673  0.01404920  0.64021052    -0.13700
C498        C  0.06952750  0.49939709  0.62020948    -0.28900
H499        H  0.09795456  0.53076980  0.66052669     0.15300
H500        H  0.06983928  0.98189689  0.60043075     0.15900
C501        C  0.00139984  0.43189486  0.62634068    -0.13700
C502        C  0.98575613  0.40269032  0.60617363    -0.28900
H503        H  0.01855390  0.43097210  0.64575974     0.15300
H504        H  0.46915300  0.40345361  0.58568002     0.15900
C505        C  0.42752864  0.43320517  0.61503720    -0.13700
C506        C  0.41507422  0.40555089  0.63600708    -0.28900
H507        H  0.40945975  0.43174629  0.59544598     0.15300
H508        H  0.43275301  0.40745200  0.65603125     0.15900
C509        C  0.42769432  0.50539636  0.61451360    -0.13700
C510        C  0.39664860  0.98706368  0.63250428    -0.28900
H511        H  0.42862580  0.02449669  0.59720234     0.15300
H512        H  0.39692432  0.46918624  0.65081927     0.15900
C513        C  0.32228631  0.06205247  0.92719426    -0.10600
C514        C  0.32466458  0.03971497  0.90944384    -0.12100
C515        C  0.32586210  0.04303961  0.58126288    -0.10600
C516        C  0.32596390  0.06548071  0.56275271    -0.12100
C517        C  0.21630466  0.16850840  0.90493266    -0.10600
C518        C  0.24006943  0.16885835  0.92246800    -0.12100
C519        C  0.42347823  0.24240690  0.92809693    -0.10600
C520        C  0.44568440  0.26736704  0.91206934    -0.12100
C521        C  0.24610831  0.17334124  0.56373708    -0.10600
C522        C  0.22267182  0.17265536  0.58200400    -0.12100
C523        C  0.44677818  0.27241260  0.57915040    -0.10600
C524        C  0.42602639  0.24776349  0.56154154    -0.12100
C525        C  0.05914118  0.21901801  0.91734344    -0.10600
C526        C  0.08240466  0.24368842  0.93380512    -0.12100
C527        C  0.08356640  0.25506311  0.57005150    -0.10600
C528        C  0.06192406  0.23230091  0.58798036    -0.12100
C529        C  0.17326084  0.45207496  0.91283290    -0.10600
C530        C  0.17236806  0.42944135  0.93149146    -0.12100
C531        C  0.29193112  0.34147703  0.91743255    -0.10600
C532        C  0.26853599  0.34071907  0.93586106    -0.12100
C533        C  0.16727630  0.43298117  0.56802401    -0.10600
C534        C  0.16633073  0.45485242  0.58722980    -0.12100
C535        C  0.28778096  0.34075188  0.59097100    -0.10600
C536        C  0.26529117  0.34135541  0.57245014    -0.12100
Fe537      Fe  0.21928921  0.88801249  0.00340763     1.65800
Fe538      Fe  0.12370216  0.84090352  0.49838691     1.73200
Fe539      Fe  0.17516589  0.79265894  0.50186420     1.54400
O540        O  0.21723993  0.80902575  0.46810157    -0.79000
O541        O  0.09799952  0.79698155  0.03278013    -0.77300
O542        O  0.24691368  0.87165900  0.46872141    -0.81500
O543        O  0.24166648  0.87268700  0.04065274    -0.76300
O544        O  0.13533194  0.76749599  0.46650436    -0.78100
O545        O  0.13492807  0.87791782  0.03530463    -0.80800
C546        C  0.23943748  0.84178214  0.04896262     0.99900
C547        C  0.24277425  0.84032635  0.45848467     1.07400
O548        O  0.17328302  0.84079122  0.50084597    -1.09800
O549        O  0.14105465  0.87892026  0.46237552    -0.72300
O550        O  0.20398413  0.91221086  0.46718576    -0.75800
O551        O  0.21707608  0.81061162  0.03622921    -0.76400
C552        C  0.17279862  0.90538598  0.45428478     0.98800
O553        O  0.19791493  0.91199550  0.03569726    -0.74400
O554        O  0.10114621  0.79800418  0.46493102    -0.79600
C555        C  0.10642867  0.77344193  0.04517501     1.01400
C556        C  0.10804062  0.77175747  0.45584404     1.07400
O557        O  0.13540746  0.76996158  0.03756071    -0.75200
C558        C  0.16533638  0.90498363  0.04566330     1.05700
Fe559      Fe  0.37809751  0.65452498  0.49456205     1.65800
Fe560      Fe  0.28085266  0.61491462  0.49533135     1.73200
Fe561      Fe  0.33083620  0.70995987  0.99267212     1.54400
O562        O  0.37273288  0.73124103  0.02674403    -0.79000
O563        O  0.25838010  0.63365316  0.46028140    -0.77300
O564        O  0.39618300  0.69130376  0.03237105    -0.81500
O565        O  0.40448856  0.69397525  0.46015358    -0.76300
O566        O  0.29159286  0.69883876  0.02787910    -0.78100
O567        O  0.29504698  0.58701854  0.46087733    -0.80800
C568        C  0.39961249  0.72006021  0.44849706     0.99900
C569        C  0.39481133  0.72110602  0.03984772     1.07400
O570        O  0.32625894  0.65904893  0.99339808    -1.09800
O571        O  0.28625596  0.58920403  0.02862905    -0.72300
O572        O  0.34906937  0.61146786  0.02964506    -0.75800
O573        O  0.37388455  0.72798990  0.45737758    -0.76400
C574        C  0.31602085  0.59014989  0.03974205     0.98800
O575        O  0.35837152  0.61408315  0.45956931    -0.74400
O576        O  0.25252234  0.63743824  0.02322563    -0.79600
C577        C  0.26562863  0.66532601  0.44940912     1.01400
C578        C  0.26213134  0.66941868  0.03555804     1.07400
O579        O  0.29300183  0.69577897  0.45898002    -0.75200
C580        C  0.32591555  0.58998545  0.44991228     1.05700
C581        C  0.45955173  0.99775592  0.13642962     0.05000
C582        C  0.99317206  0.53190369  0.13661687     0.05000
C583        C  0.02880889  0.53214778  0.13448854     0.05000
C584        C  0.02993059  0.99768295  0.13098768     0.05000
C585        C  0.99592521  0.96338027  0.13030908     0.05000
C586        C  0.46093002  0.96377169  0.13180692     0.05000
C587        C  0.30458000  0.97186592  0.13961949     0.82900
N588        N  0.34117518  0.97799878  0.14068780    -0.75400
C589        C  0.36802546  0.50583203  0.12286142     0.85400
N590        N  0.35819145  0.52701701  0.10464293    -0.75300
C591        C  0.32202933  0.52131713  0.10391960     0.85500
N592        N  0.29496449  0.49377116  0.12124343    -0.77000
C593        C  0.19493543  0.52609853  0.14918567     0.82900
N594        N  0.16304034  0.52939404  0.15413050    -0.75400
C595        C  0.13091029  0.50758619  0.13773005     0.85400
N596        N  0.13077565  0.98238588  0.11598587    -0.75300
C597        C  0.16266884  0.97891311  0.11107876     0.85500
N598        N  0.19476078  0.50052998  0.12797519    -0.77000
C599        C  0.18304549  0.66261080  0.09819994     0.82900
N600        N  0.15286735  0.62792266  0.09778506    -0.75400
C601        C  0.12316809  0.61968369  0.11727497     0.85400
N602        N  0.12361830  0.64671166  0.13712624    -0.75300
C603        C  0.15373932  0.68168546  0.13729552     0.85500
N604        N  0.18353452  0.68957599  0.11789081    -0.77000
C605        C  0.48340090  0.67000600  0.14096917     0.82900
N606        N  0.50815197  0.69915759  0.12354203    -0.75400
C607        C  0.03247520  0.69405654  0.10399915     0.85400
N608        N  0.03248961  0.66046809  0.10231514    -0.75300
C609        C  0.50814199  0.63183204  0.11985574     0.85500
N610        N  0.48356872  0.63655275  0.13923485    -0.77000
C611        C  0.31323026  0.83924526  0.11343466     0.82900
N612        N  0.34770618  0.86954256  0.11800869    -0.75400
C613        C  0.37338263  0.86753234  0.13782053     0.85400
N614        N  0.36438241  0.83522314  0.15279162    -0.75300
C615        C  0.33027036  0.80489032  0.14796912     0.85500
N616        N  0.30449780  0.80676355  0.12836987    -0.77000
C617        C  0.01585422  0.83178843  0.13687448     0.82900
N618        N  0.99294437  0.80085592  0.11948301    -0.75400
C619        C  0.46705095  0.80207303  0.09960102     0.85400
N620        N  0.46404761  0.83402689  0.09718375    -0.75300
C621        C  0.98634214  0.86471320  0.11458829     0.85500
N622        N  0.01236512  0.86352330  0.13450365    -0.77000
Fe623      Fe  0.34710198  0.62268606  0.25123892     1.65800
Fe624      Fe  0.28743977  0.66228543  0.25266082     1.73200
Fe625      Fe  0.38377641  0.71830721  0.24935440     1.54400
O626        O  0.41266376  0.70740454  0.28447548    -0.79000
O627        O  0.29727319  0.70023651  0.21765871    -0.77300
O628        O  0.38880180  0.64516593  0.28539331    -0.81500
O629        O  0.38678935  0.64168057  0.21575474    -0.76300
O630        O  0.36302102  0.74019577  0.28354171    -0.78100
O631        O  0.26754649  0.62074775  0.21852938    -0.80800
C632        C  0.40931998  0.67338437  0.20483051     0.99900
C633        C  0.41141773  0.67786573  0.29540473     1.07400
O634        O  0.33943399  0.66774284  0.25107619    -1.09800
O635        O  0.27029450  0.62351387  0.28771847    -0.72300
O636        O  0.30840737  0.59710909  0.28673597    -0.75800
O637        O  0.41103029  0.70379949  0.21479885    -0.76400
C638        C  0.28040754  0.60019924  0.29761870     0.98800
O639        O  0.30615086  0.59477868  0.21714545    -0.74400
O640        O  0.30066241  0.70313590  0.28708550    -0.79600
C641        C  0.32652764  0.72629715  0.20555624     1.01400
C642        C  0.33098760  0.73159667  0.29550793     1.07400
O643        O  0.36005309  0.73526231  0.21429353    -0.75200
C644        C  0.27723822  0.59709820  0.20770913     1.05700
Fe645      Fe  0.11200745  0.78396977  0.24633962     1.65800
Fe646      Fe  0.20932985  0.82891873  0.24224441     1.73200
Fe647      Fe  0.16059249  0.88012875  0.24431519     1.54400
O648        O  0.11882166  0.86303457  0.20985971    -0.79000
O649        O  0.23486855  0.87062070  0.27599040    -0.77300
O650        O  0.08644764  0.80060105  0.21213375    -0.81500
O651        O  0.09008510  0.80362925  0.28176459    -0.76300
O652        O  0.20108465  0.90205501  0.20927487    -0.78100
O653        O  0.19459344  0.79032981  0.27772350    -0.80800
C654        C  0.09556389  0.83565279  0.29126019     0.99900
C655        C  0.09208364  0.83165141  0.20080990     1.07400
O656        O  0.16065097  0.83102048  0.24423790    -1.09800
O657        O  0.19008388  0.78674043  0.20828284    -0.72300
O658        O  0.12692661  0.75740600  0.21131621    -0.75800
O659        O  0.12050606  0.86593958  0.27966840    -0.76400
C660        C  0.15776453  0.76117195  0.19969597     0.98800
O661        O  0.13143773  0.76142416  0.28076273    -0.74400
O662        O  0.23132158  0.86758803  0.20675265    -0.79600
C663        C  0.22919802  0.89674498  0.28740280     1.01400
C664        C  0.22638478  0.89478526  0.19789553     1.07400
O665        O  0.20227150  0.90292226  0.27871222    -0.75200
C666        C  0.16377512  0.76632201  0.28962998     1.05700
C667        C  0.47032805  0.50425066  0.39360410     0.05000
C668        C  0.46988313  0.96868102  0.39051210     0.05000
C669        C  0.00494337  0.96746351  0.38787270     0.05000
C670        C  0.03970596  0.00073549  0.39040173     0.03400
C671        C  0.03997429  0.53527877  0.39386976     0.05000
C672        C  0.00553061  0.53733693  0.39562231     0.05000
C673        C  0.20145043  0.52919601  0.35686895     0.82900
N674        N  0.16943818  0.53297375  0.35573491    -0.75400
C675        C  0.13917502  0.01126615  0.37332007     0.85400
N676        N  0.14049290  0.98440990  0.39130903    -0.75300
C677        C  0.17230484  0.98031883  0.39220267     0.85500
N678        N  0.20319894  0.00332403  0.37532429    -0.77000
C679        C  0.30915101  0.96709464  0.34972181     0.82900
N680        N  0.30382985  0.49247982  0.36819399    -0.75400
C681        C  0.33187997  0.51606697  0.38780483     0.85400
N682        N  0.36527327  0.51491775  0.38901863    -0.75300
C683        C  0.37095202  0.49037543  0.37041509     0.85500
N684        N  0.34276640  0.96625920  0.35074215    -0.77000
C685        C  0.48114193  0.67182656  0.36092241     0.82900
N686        N  0.50840434  0.69915303  0.37892110    -0.75400
C687        C  0.03039468  0.69058985  0.39775691     0.85400
N688        N  0.02480977  0.65466082  0.39913413    -0.75300
C689        C  0.49717008  0.62737288  0.38147211     0.85500
N690        N  0.47584876  0.63626481  0.36212233    -0.77000
C691        C  0.18667724  0.66484913  0.38902462     0.82900
N692        N  0.15251394  0.63374007  0.39056064    -0.75400
C693        C  0.12284743  0.63088314  0.37309577     0.85400
N694        N  0.12754124  0.65934973  0.35410334    -0.75300
C695        C  0.16149667  0.69067263  0.35267204     0.85500
N696        N  0.19124380  0.69349591  0.37011492    -0.77000
C697        C  0.02261113  0.83679118  0.35846313     0.82900
N698        N  0.99923612  0.80399167  0.37250134    -0.75400
C699        C  0.47253074  0.80237115  0.39360527     0.85400
N700        N  0.47032724  0.83400293  0.40121367    -0.75300
C701        C  0.99432136  0.86736171  0.38756337     0.85500
N702        N  0.02002963  0.86840416  0.36587596    -0.77000
C703        C  0.32086573  0.84224164  0.39560631     0.82900
N704        N  0.31312769  0.81184681  0.37707843    -0.75400
C705        C  0.33969759  0.81248730  0.35680170     0.85400
N706        N  0.37387011  0.84346255  0.35489087    -0.75300
C707        C  0.38192842  0.87383054  0.37352411     0.85500
N708        N  0.35528412  0.87315579  0.39398032    -0.77000
C709        C  0.00725046  0.57481266  0.40061477    -0.13700
C710        C  0.49126127  0.58845228  0.38054328    -0.28900
H711        H  0.52522234  0.59327204  0.41973202     0.15300
H712        H  0.97445073  0.57038884  0.36081695     0.15900
C713        C  0.07706844  0.56999199  0.39513781    -0.13700
C714        C  0.08567541  0.59719324  0.37405039    -0.28900
H715        H  0.09832675  0.57161151  0.41183247     0.15300
H716        H  0.06467641  0.59451464  0.35663206     0.15900
C717        C  0.41947332  0.90702122  0.37103310    -0.13700
C718        C  0.43292465  0.93404600  0.39331651    -0.28900
H719        H  0.43666321  0.90906370  0.35055056     0.15300
H720        H  0.41517902  0.93245720  0.41329407     0.15900
C721        C  0.43390898  0.50638464  0.39364750    -0.13700
C722        C  0.40723106  0.48895743  0.37125066    -0.28900
H723        H  0.43000932  0.52398806  0.41133667     0.15300
H724        H  0.41204500  0.97239874  0.35273947     0.15900
C725        C  0.10475419  0.01605329  0.37214084    -0.13700
C726        C  0.07541618  0.99756349  0.39154943    -0.28900
H727        H  0.10351632  0.03511902  0.35505427     0.15300
H728        H  0.07572891  0.47665930  0.40736087     0.15900
C729        C  0.99090636  0.90121375  0.39637075    -0.13700
C730        C  0.00642675  0.93225843  0.37909475    -0.28900
H731        H  0.47387271  0.89986405  0.41694716     0.15300
H732        H  0.02340154  0.93326042  0.35872765     0.15900
C733        C  0.16545498  0.72030984  0.33229091    -0.10600
C734        C  0.16553701  0.74259004  0.31368153    -0.12100
C735        C  0.04981030  0.83784877  0.33558746    -0.10600
C736        C  0.07158653  0.83753562  0.31587989    -0.12100
C737        C  0.25546714  0.92114233  0.31073967    -0.10600
C738        C  0.27946753  0.94196152  0.32897753    -0.12100
C739        C  0.45830027  0.67996770  0.33967664    -0.10600
C740        C  0.43729763  0.68130481  0.32005858    -0.12100
C741        C  0.23364932  0.55360253  0.33875799    -0.10600
C742        C  0.25751692  0.57497139  0.32133149    -0.12100
C743        C  0.32933121  0.75628716  0.31917117    -0.10600
C744        C  0.33203562  0.78060559  0.33725332    -0.12100
C745        C  0.06620917  0.83122382  0.17704077    -0.10600
C746        C  0.04342616  0.83098211  0.15823397    -0.12100
C747        C  0.32206827  0.77150730  0.16443106    -0.10600
C748        C  0.32163581  0.74813037  0.18172856    -0.12100
C749        C  0.45724943  0.67424964  0.16170305    -0.10600
C750        C  0.43497316  0.67489069  0.18057028    -0.12100
C751        C  0.15445477  0.71031518  0.15820840    -0.10600
C752        C  0.15594261  0.73424046  0.17637180    -0.12100
C753        C  0.22841310  0.54962199  0.16692890    -0.10600
C754        C  0.25309496  0.57094970  0.18433311    -0.12100
C755        C  0.25215834  0.91985788  0.17505155    -0.10600
C756        C  0.27582158  0.94290426  0.15823891    -0.12100
C757        C  0.06391837  0.56863085  0.13803783    -0.13700
C758        C  0.09060449  0.58172698  0.11570454    -0.28900
H759        H  0.06560919  0.58664237  0.15790571     0.15300
H760        H  0.08828559  0.56417197  0.09532644     0.15900
C761        C  0.49095433  0.56807344  0.13857496    -0.13700
C762        C  0.50871043  0.59565880  0.11775472    -0.28900
H763        H  0.47335035  0.57098571  0.15682455     0.15300
H764        H  0.02518272  0.59157565  0.09920603     0.15900
C765        C  0.09659860  0.51181580  0.14372195    -0.13700
C766        C  0.06602390  0.99624279  0.12463295    -0.28900
H767        H  0.09623627  0.02818006  0.16410813     0.15300
H768        H  0.06667796  0.47948954  0.10447744     0.15900
C769        C  0.99880201  0.92792845  0.13211575    -0.13700
C770        C  0.98195737  0.89894361  0.11182759    -0.28900
H771        H  0.01751988  0.92694426  0.15015615     0.15300
H772        H  0.46477093  0.90042990  0.09305485     0.15900
C773        C  0.42468178  0.92962711  0.12508935    -0.13700
C774        C  0.41083253  0.89984424  0.14367419    -0.28900
H775        H  0.40756678  0.93082237  0.10576518     0.15300
H776        H  0.42754782  0.89902012  0.16346027     0.15900
C777        C  0.42168872  0.99589006  0.14152676    -0.13700
C778        C  0.40758831  0.51235899  0.12153282    -0.28900
H779        H  0.40288915  0.47627686  0.15813331     0.15300
H780        H  0.42596404  0.03022297  0.10369579     0.15900
C781        C  0.32440478  0.56399728  0.42602202    -0.10600
C782        C  0.32631408  0.54195453  0.40769294    -0.12100
C783        C  0.31314209  0.54405799  0.08372775    -0.10600
C784        C  0.31222868  0.56509504  0.06448201    -0.12100
C785        C  0.21744813  0.66727024  0.40803815    -0.10600
C786        C  0.24070885  0.66691019  0.42587856    -0.12100
C787        C  0.42570858  0.74350016  0.42531287    -0.10600
C788        C  0.44776177  0.76826328  0.40899412    -0.12100
C789        C  0.23779177  0.67209202  0.05909606    -0.10600
C790        C  0.21421531  0.67021525  0.07770059    -0.12100
C791        C  0.44230291  0.76978780  0.08105238    -0.10600
C792        C  0.42045775  0.74562983  0.06346430    -0.12100
C793        C  0.05936829  0.71985279  0.41676735    -0.10600
C794        C  0.08254972  0.74434979  0.43349270    -0.12100
C795        C  0.08099479  0.74825477  0.06805869    -0.10600
C796        C  0.05882590  0.72457225  0.08527663    -0.12100
C797        C  0.17345107  0.95242826  0.41187420    -0.10600
C798        C  0.17337363  0.92993251  0.43013470    -0.12100
C799        C  0.29264960  0.84146700  0.41701736    -0.10600
C800        C  0.26913435  0.84051733  0.43537400    -0.12100
C801        C  0.16296497  0.92955091  0.06946645    -0.10600
C802        C  0.16236724  0.95167421  0.08865189    -0.12100
C803        C  0.28636362  0.84124291  0.09223094    -0.10600
C804        C  0.26432820  0.84203785  0.07332504    -0.12100
Fe805      Fe  0.22099656  0.88889148  0.50251589     1.65800
Fe806      Fe  0.12206995  0.83849000  0.99938405     1.73200
Fe807      Fe  0.17511086  0.79187388  0.00217447     1.54400
O808        O  0.21509154  0.80844733  0.96676660    -0.79000
O809        O  0.10070944  0.80315737  0.53417215    -0.77300
O810        O  0.24735276  0.87079940  0.97137097    -0.81500
O811        O  0.24476663  0.87243756  0.53808177    -0.76300
O812        O  0.13335210  0.76545423  0.96843943    -0.78100
O813        O  0.13833417  0.88331582  0.53184067    -0.80800
C814        C  0.23985913  0.84124858  0.54834158     0.99900
C815        C  0.24210535  0.83988803  0.95914711     1.07400
O816        O  0.17211143  0.83944701  0.00162547    -1.09800
O817        O  0.13973288  0.87981972  0.96554186    -0.72300
O818        O  0.20305452  0.90969111  0.96641360    -0.75800
O819        O  0.21494032  0.81002010  0.53754315    -0.76400
C820        C  0.17150634  0.90460900  0.95546992     0.98800
O821        O  0.20131140  0.91222491  0.53662035    -0.74400
O822        O  0.10207851  0.79858615  0.96346909    -0.79600
C823        C  0.10717761  0.77784320  0.54536917     1.01400
C824        C  0.10771191  0.77107591  0.95600693     1.07400
O825        O  0.13354081  0.77104617  0.53582359    -0.75200
C826        C  0.16885210  0.90786835  0.54434077     1.05700
Fe827      Fe  0.37237242  0.65258054  0.99612056     1.65800
Fe828      Fe  0.27547359  0.61463581  0.99141469     1.73200
Fe829      Fe  0.33454690  0.71042500  0.49290265     1.54400
O830        O  0.37651089  0.73197817  0.52652972    -0.79000
O831        O  0.25791750  0.63432819  0.95411054    -0.77300
O832        O  0.40330355  0.69443910  0.52965652    -0.81500
O833        O  0.40157483  0.69307326  0.96297764    -0.76300
O834        O  0.29574259  0.69965954  0.52846759    -0.78100
O835        O  0.29169053  0.58581940  0.95936891    -0.80800
C836        C  0.39702507  0.71893397  0.95034064     0.99900
C837        C  0.40018319  0.72303224  0.53825924     1.07400
O838        O  0.33116374  0.65993243  0.49426901    -1.09800
O839        O  0.29597933  0.58958063  0.53049910    -0.72300
O840        O  0.35892165  0.61422159  0.52894569    -0.75800
O841        O  0.37064949  0.72666157  0.95761673    -0.76400
C842        C  0.32691630  0.59152641  0.53997323     0.98800
O843        O  0.35491483  0.61311243  0.96024880    -0.74400
O844        O  0.26073316  0.63747293  0.52990871    -0.79600
C845        C  0.26449698  0.66668854  0.94573639     1.01400
C846        C  0.26901122  0.67026880  0.53963237     1.07400
O847        O  0.28967139  0.69659907  0.95837652    -0.75200
C848        C  0.32304792  0.58880127  0.94971808     1.05700
C849        C  0.46333757  0.00271875  0.62119381     0.05000
C850        C  0.99734217  0.53643742  0.62629966     0.05000
C851        C  0.03250261  0.53594766  0.62791027     0.05000
C852        C  0.03294041  0.00110873  0.62455855     0.05000
C853        C  0.99858345  0.96726133  0.62267745     0.05000
C854        C  0.46376489  0.96787291  0.62040999     0.05000
C855        C  0.29677710  0.96696857  0.63801733     0.82900
N856        N  0.32979659  0.96590913  0.64247432    -0.75400
C857        C  0.36147403  0.48960907  0.62701162     0.85400
N858        N  0.35995789  0.51501089  0.60721774    -0.75300
C859        C  0.32692554  0.51653949  0.60321711     0.85500
N860        N  0.29524381  0.49242281  0.61885818    -0.77000
C861        C  0.19719669  0.52915647  0.64759193     0.82900
N862        N  0.16511657  0.53225993  0.65198080    -0.75400
C863        C  0.13341098  0.51040626  0.63512279     0.85400
N864        N  0.13326765  0.98444675  0.61398739    -0.75300
C865        C  0.16532095  0.98113744  0.60974259     0.85500
N866        N  0.19766452  0.50380868  0.62649823    -0.77000
C867        C  0.18983390  0.66619948  0.60066291     0.82900
N868        N  0.15951294  0.63171919  0.59868735    -0.75400
C869        C  0.12808606  0.62339172  0.61592740     0.85400
N870        N  0.12681830  0.65015851  0.63504302    -0.75300
C871        C  0.15700611  0.68503526  0.63677172     0.85500
N872        N  0.18866626  0.69304626  0.61961713    -0.77000
C873        C  0.48588700  0.67244995  0.64137595     0.82900
N874        N  0.51032194  0.70316448  0.62532784    -0.75400
C875        C  0.03521185  0.70027062  0.60498499     0.85400
N876        N  0.03634514  0.66746160  0.60130374    -0.75300
C877        C  0.51240014  0.63718893  0.61740577     0.85500
N878        N  0.48702665  0.63958641  0.63749481    -0.77000
C879        C  0.31586398  0.84063104  0.61151282     0.82900
N880        N  0.35015479  0.87160892  0.61394235    -0.75400
C881        C  0.37742786  0.87178028  0.63309692     0.85400
N882        N  0.37018262  0.84082185  0.64970487    -0.75300
C883        C  0.33616053  0.80966577  0.64701670     0.85500
N884        N  0.30885699  0.80951763  0.62797505    -0.77000
C885        C  0.01546842  0.83520376  0.63763444     0.82900
N886        N  0.99397640  0.80409973  0.62002138    -0.75400
C887        C  0.46904747  0.80456035  0.59824048     0.85400
N888        N  0.46677322  0.83663364  0.59391895    -0.75300
C889        C  0.98851311  0.86800712  0.61134554     0.85500
N890        N  0.01264683  0.86702129  0.63338265    -0.77000
Fe891      Fe  0.34742647  0.62333378  0.75138824     1.65800
Fe892      Fe  0.28925174  0.66446505  0.75183336     1.73200
Fe893      Fe  0.38564834  0.71908898  0.75017849     1.54400
O894        O  0.41194692  0.70759997  0.78673778    -0.79000
O895        O  0.30165636  0.70584957  0.71888011    -0.77300
O896        O  0.39033904  0.64563842  0.78455055    -0.81500
O897        O  0.38587880  0.64126452  0.71497473    -0.76300
O898        O  0.36358168  0.74172817  0.78289906    -0.78100
O899        O  0.27091703  0.62581049  0.71549001    -0.80800
C900        C  0.41059654  0.67307308  0.70579196     0.99900
C901        C  0.41162093  0.67790598  0.79613855     1.07400
O902        O  0.34077052  0.66892588  0.75114230    -1.09800
O903        O  0.26911551  0.62241771  0.78477358    -0.72300
O904        O  0.30976742  0.59914625  0.78785236    -0.75800
O905        O  0.41421807  0.70369023  0.71728631    -0.76400
C906        C  0.28000972  0.60043352  0.79655134     0.98800
O907        O  0.30519952  0.59527552  0.71830064    -0.74400
O908        O  0.30186841  0.70261800  0.78838823    -0.79600
C909        C  0.33148959  0.73040231  0.70601075     1.01400
C910        C  0.33180421  0.73202099  0.79591787     1.07400
O911        O  0.36454411  0.73655413  0.71365112    -0.75200
C912        C  0.27863066  0.60006782  0.70663112     1.05700
Fe913      Fe  0.10906282  0.78424680  0.74577662     1.65800
Fe914      Fe  0.20622889  0.83041032  0.74142464     1.73200
Fe915      Fe  0.15669920  0.88054162  0.74770105     1.54400
O916        O  0.11309750  0.86408722  0.71518120    -0.79000
O917        O  0.23250948  0.87096252  0.77592417    -0.77300
O918        O  0.08434289  0.80154418  0.71171057    -0.81500
O919        O  0.08567157  0.80257727  0.78122125    -0.76300
O920        O  0.19416140  0.90298116  0.71106369    -0.78100
O921        O  0.19193605  0.79045325  0.77583860    -0.80800
C922        C  0.09244298  0.83388686  0.79353700     0.99900
C923        C  0.08830569  0.83319073  0.70349898     1.07400
O924        O  0.15733541  0.83172792  0.74499424    -1.09800
O925        O  0.18754076  0.78954801  0.70651428    -0.72300
O926        O  0.12467391  0.75818982  0.71050702    -0.75800
O927        O  0.11896254  0.86480577  0.78455763    -0.76400
C928        C  0.15564875  0.76312729  0.69827855     0.98800
O929        O  0.12869527  0.76183147  0.77985744    -0.74400
O930        O  0.22601389  0.87010843  0.70655445    -0.79600
C931        C  0.22748213  0.89706422  0.78817493     1.01400
C932        C  0.21895297  0.89619084  0.69812383     1.07400
O933        O  0.20038741  0.90345266  0.78050610    -0.75200
C934        C  0.16116508  0.76642274  0.78795444     1.05700
C935        C  0.46953263  0.50332897  0.89350884     0.05000
C936        C  0.46974215  0.96793807  0.89212193     0.05000
C937        C  0.00377364  0.96645356  0.88901370     0.05000
C938        C  0.03853734  0.99976738  0.89140126     0.03400
C939        C  0.03964340  0.53494034  0.89407101     0.05000
C940        C  0.00509123  0.53675381  0.89627303     0.05000
C941        C  0.20142339  0.52916292  0.85696873     0.82900
N942        N  0.16937021  0.53288258  0.85607016    -0.75400
C943        C  0.13794711  0.01025047  0.87381115     0.85400
N944        N  0.13968774  0.98375158  0.89199053    -0.75300
C945        C  0.17146677  0.97956722  0.89252398     0.85500
N946        N  0.20199674  0.00223064  0.87494042    -0.77000
C947        C  0.30828240  0.96597095  0.85100471     0.82900
N948        N  0.30224315  0.49059124  0.86892355    -0.75400
C949        C  0.33030651  0.51427559  0.88853645     0.85400
N950        N  0.36380995  0.51330696  0.88961489    -0.75300
C951        C  0.36960756  0.48890341  0.87090721     0.85500
N952        N  0.34191056  0.96512088  0.85217666    -0.77000
C953        C  0.48090794  0.67108461  0.86132519     0.82900
N954        N  0.50849619  0.69841580  0.87902664    -0.75400
C955        C  0.03031831  0.68983517  0.89816624     0.85400
N956        N  0.02451535  0.65386065  0.89974796    -0.75300
C957        C  0.49686367  0.62653485  0.88162239     0.85500
N958        N  0.47541518  0.63548070  0.86250833    -0.77000
C959        C  0.18550057  0.66538474  0.88584336     0.82900
N960        N  0.15158471  0.63410202  0.88822742    -0.75400
C961        C  0.12125150  0.63062473  0.87136752     0.85400
N962        N  0.12507661  0.65866904  0.85217676    -0.75300
C963        C  0.15886495  0.69011319  0.84999884     0.85500
N964        N  0.18917846  0.69351121  0.86680204    -0.77000
C965        C  0.01949766  0.83451746  0.86067444     0.82900
N966        N  0.99621116  0.80203901  0.87508727    -0.75400
C967        C  0.47127302  0.80139121  0.89647892     0.85400
N968        N  0.46954557  0.83331006  0.90397575    -0.75300
C969        C  0.99183618  0.86582123  0.88953353     0.85500
N970        N  0.01721465  0.86634700  0.86775580    -0.77000
C971        C  0.32065297  0.84195483  0.89651375     0.82900
N972        N  0.31294054  0.81154670  0.87796064    -0.75400
C973        C  0.33967995  0.81209917  0.85787868     0.85400
N974        N  0.37394286  0.84297095  0.85619891    -0.75300
C975        C  0.38196134  0.87329892  0.87484553     0.85500
N976        N  0.35518590  0.87273831  0.89508884    -0.77000
C977        C  0.00668491  0.57409161  0.90146139    -0.13700
C978        C  0.49067741  0.58756386  0.88064189    -0.28900
H979        H  0.52498679  0.59226292  0.91952679     0.15300
H980        H  0.97344263  0.56946012  0.86192376     0.15900
C981        C  0.07659583  0.56990490  0.89452860    -0.13700
C982        C  0.08431571  0.59669397  0.87317213    -0.28900
H983        H  0.09841786  0.57208438  0.91085638     0.15300
H984        H  0.06273366  0.59346471  0.85614391     0.15900
C985        C  0.41955869  0.90637903  0.87252249    -0.13700
C986        C  0.43293682  0.93322318  0.89493227    -0.28900
H987        H  0.43680831  0.90853988  0.85204695     0.15300
H988        H  0.41516783  0.93149617  0.91492912     0.15900
C989        C  0.43308646  0.50552507  0.89365096    -0.13700
C990        C  0.40608797  0.48777833  0.87151863    -0.28900
H991        H  0.42934258  0.52328754  0.91128164     0.15300
H992        H  0.41104949  0.97096732  0.85463053     0.15900
C993        C  0.10345752  0.01496031  0.87288475    -0.13700
C994        C  0.07433757  0.99672080  0.89256029    -0.28900
H995        H  0.10193384  0.03371221  0.85561831     0.15300
H996        H  0.07583998  0.47674137  0.90805655     0.15900
C997        C  0.98886700  0.89999862  0.89801154    -0.13700
C998        C  0.00522477  0.93108163  0.88079185    -0.28900
H999        H  0.47348109  0.89948610  0.91892359     0.15300
H1000       H  0.02259772  0.93186551  0.86078034     0.15900
C1001       C  0.16231131  0.71945643  0.82965007    -0.10600
C1002       C  0.16291838  0.74220822  0.81139648    -0.12100
C1003       C  0.04638534  0.83498725  0.83787943    -0.10600
C1004       C  0.06809449  0.83449614  0.81826600    -0.12100
C1005       C  0.25455844  0.92103969  0.81135300    -0.10600
C1006       C  0.27882017  0.94137104  0.82970639    -0.12100
C1007       C  0.45799477  0.67928215  0.84036274    -0.10600
C1008       C  0.43705671  0.68075497  0.82083978    -0.12100
C1009       C  0.23321228  0.55340892  0.83805781    -0.10600
C1010       C  0.25652337  0.57494624  0.82017129    -0.12100
C1011       C  0.32990542  0.75638725  0.81982776    -0.10600
C1012       C  0.33215904  0.78033743  0.83816727    -0.12100
C1013       C  0.06307272  0.83404429  0.67998363    -0.10600
C1014       C  0.04136341  0.83455377  0.66061080    -0.12100
C1015       C  0.32937817  0.77745397  0.66503318    -0.10600
C1016       C  0.32813070  0.75376005  0.68254099    -0.12100
C1017       C  0.45900404  0.67451193  0.66274147    -0.10600
C1018       C  0.43646838  0.67445419  0.68172045    -0.12100
C1019       C  0.15553803  0.71333327  0.65695734    -0.10600
C1020       C  0.15489487  0.73659279  0.67486695    -0.12100
C1021       C  0.23027911  0.55282219  0.66559161    -0.10600
C1022       C  0.25471644  0.57418964  0.68309343    -0.12100
C1023       C  0.24143224  0.92038257  0.67359459    -0.10600
C1024       C  0.26428480  0.94194117  0.65557281    -0.12100
C1025       C  0.06745031  0.57189123  0.63363156    -0.13700
C1026       C  0.09554773  0.58570679  0.61258005    -0.28900
H1027       H  0.06792127  0.58904154  0.65376238     0.15300
H1028       H  0.09452432  0.56890474  0.59201643     0.15900
C1029       C  0.49471413  0.57185400  0.63041879    -0.13700
C1030       C  0.51431019  0.60197499  0.61267199    -0.28900
H1031       H  0.47488633  0.57212428  0.64789174     0.15300
H1032       H  0.03303711  0.60073913  0.59482678     0.15900
C1033       C  0.09896175  0.51460896  0.64020258    -0.13700
C1034       C  0.06891917  0.99891121  0.62016577    -0.28900
H1035       H  0.09729511  0.03022902  0.66051999     0.15300
H1036       H  0.07045528  0.48238863  0.60047321     0.15900
C1037       C  0.00065027  0.93165408  0.62649596    -0.13700
C1038       C  0.98497157  0.90234098  0.60643252    -0.28900
H1039       H  0.01780431  0.93081870  0.64595369     0.15300
H1040       H  0.46888066  0.90324623  0.58664006     0.15900
C1041       C  0.42738797  0.93302129  0.61574660    -0.13700
C1042       C  0.41459436  0.90525318  0.63661003    -0.28900
H1043       H  0.40954606  0.93172703  0.59603267     0.15300
H1044       H  0.43206889  0.90696605  0.65672947     0.15900
C1045       C  0.42789247  0.00533338  0.61513565    -0.13700
C1046       C  0.39668097  0.48709248  0.63213672    -0.28900
H1047       H  0.42816808  0.52455620  0.59668285     0.15300
H1048       H  0.39665289  0.96916923  0.65129308     0.15900
C1049       C  0.32267661  0.56264233  0.92635681    -0.10600
C1050       C  0.32479580  0.54036466  0.90834789    -0.12100
C1051       C  0.32561137  0.54352109  0.58220651    -0.10600
C1052       C  0.32567797  0.56593585  0.56368757    -0.12100
C1053       C  0.21699426  0.66882596  0.90420900    -0.10600
C1054       C  0.24073744  0.66927909  0.92182678    -0.12100
C1055       C  0.42415280  0.74244691  0.92788286    -0.10600
C1056       C  0.44646736  0.76745012  0.91196265    -0.12100
C1057       C  0.24585604  0.67415192  0.56373743    -0.10600
C1058       C  0.22243715  0.67361899  0.58195330    -0.12100
C1059       C  0.44595423  0.77214891  0.57950787    -0.10600
C1060       C  0.42537223  0.74759830  0.56178858    -0.12100
C1061       C  0.05946165  0.71913913  0.91690635    -0.10600
C1062       C  0.08256351  0.74373977  0.93353896    -0.12100
C1063       C  0.08238815  0.75457980  0.56924264    -0.10600
C1064       C  0.06058960  0.73169953  0.58700655    -0.12100
C1065       C  0.17269706  0.95179207  0.91256173    -0.10600
C1066       C  0.17200350  0.92919887  0.93116453    -0.12100
C1067       C  0.29232817  0.84139190  0.91776216    -0.10600
C1068       C  0.26879138  0.84058824  0.93606637    -0.12100
C1069       C  0.16668327  0.93249062  0.56809011    -0.10600
C1070       C  0.16573189  0.95431061  0.58734489    -0.12100
C1071       C  0.28736275  0.84072445  0.59107160    -0.10600
C1072       C  0.26476159  0.84116372  0.57256383    -0.12100
Fe1073     Fe  0.71929314  0.38821028  0.00331265     1.65800
Fe1074     Fe  0.62348391  0.34017696  0.49879548     1.73200
Fe1075     Fe  0.67529185  0.29226898  0.50236697     1.54400
O1076       O  0.71743907  0.30872270  0.46863996    -0.79000
O1077       O  0.59835957  0.29684430  0.03264662    -0.77300
O1078       O  0.74674526  0.37134992  0.46898163    -0.81500
O1079       O  0.74176361  0.37275832  0.04042222    -0.76300
O1080       O  0.63551841  0.26695444  0.46695679    -0.78100
O1081       O  0.63487719  0.37772900  0.03531099    -0.80800
C1082       C  0.73979959  0.34184483  0.04836298     0.99900
C1083       C  0.74280526  0.34003527  0.45888012     1.07400
O1084       O  0.67317103  0.34028277  0.50124037    -1.09800
O1085       O  0.64061013  0.37808403  0.46269142    -0.72300
O1086       O  0.70351470  0.41161257  0.46744616    -0.75800
O1087       O  0.71764878  0.31079770  0.03535000    -0.76400
C1088       C  0.67228160  0.40461879  0.45454210     0.98800
O1089       O  0.69784501  0.41188834  0.03579016    -0.74400
O1090       O  0.60109696  0.29722993  0.46541736    -0.79600
C1091       C  0.60704856  0.27343255  0.04494615     1.01400
C1092       C  0.60815806  0.27111041  0.45629126     1.07400
O1093       O  0.63604091  0.27006690  0.03713527    -0.75200
C1094       C  0.66524432  0.40476003  0.04576154     1.05700
Fe1095     Fe  0.87809127  0.15467875  0.49468641     1.65800
Fe1096     Fe  0.78083570  0.11513479  0.49511909     1.73200
Fe1097     Fe  0.83077599  0.20976870  0.99278226     1.54400
O1098       O  0.87269809  0.23092112  0.02679057    -0.79000
O1099       O  0.75843352  0.13405145  0.46015143    -0.77300
O1100       O  0.89663813  0.19131134  0.03177337    -0.81500
O1101       O  0.90464022  0.19414891  0.46033407    -0.76300
O1102       O  0.79158182  0.19845509  0.02806903    -0.78100
O1103       O  0.79512508  0.08740038  0.46059196    -0.80800
C1104       C  0.89985720  0.22026969  0.44863566     0.99900
C1105       C  0.89511238  0.22096419  0.03951460     1.07400
O1106       O  0.82621557  0.15884329  0.99325988    -1.09800
O1107       O  0.78644512  0.08860107  0.02808353    -0.72300
O1108       O  0.84932887  0.11146050  0.02947925    -0.75800
O1109       O  0.87409435  0.22821705  0.45741251    -0.76400
C1110       C  0.81626099  0.08980974  0.03936239     0.98800
O1111       O  0.85845399  0.11424269  0.45970129    -0.74400
O1112       O  0.75274774  0.13697659  0.02361764    -0.79600
C1113       C  0.76570382  0.16576220  0.44935949     1.01400
C1114       C  0.76233225  0.16895171  0.03596042     1.07400
O1115       O  0.79313616  0.19616459  0.45894109    -0.75200
C1116       C  0.82604833  0.09027660  0.44984114     1.05700
C1117       C  0.95935848  0.49741593  0.13588581     0.05000
C1118       C  0.49346934  0.03214606  0.13715433     0.05000
C1119       C  0.52902259  0.03219983  0.13505554     0.05000
C1120       C  0.53012431  0.49811739  0.12999799     0.05000
C1121       C  0.49620081  0.46375336  0.12932714     0.05000
C1122       C  0.96090657  0.46351965  0.13122158     0.05000
C1123       C  0.80438946  0.47157950  0.13939097     0.82900
N1124       N  0.84094826  0.47759795  0.14032128    -0.75400
C1125       C  0.86796084  0.00567006  0.12322717     0.85400
N1126       N  0.85820199  0.02671839  0.10476524    -0.75300
C1127       C  0.82204299  0.02101069  0.10382842     0.85500
N1128       N  0.79489684  0.99359087  0.12121166    -0.77000
C1129       C  0.69510410  0.02606131  0.14916575     0.82900
N1130       N  0.66318590  0.02925925  0.15431076    -0.75400
C1131       C  0.63100583  0.00748943  0.13794872     0.85400
N1132       N  0.63068582  0.48235997  0.11570917    -0.75300
C1133       C  0.66247516  0.47861440  0.11114880     0.85500
N1134       N  0.69490922  0.00064270  0.12779085    -0.77000
C1135       C  0.68368061  0.16220633  0.09907605     0.82900
N1136       N  0.65339018  0.12759164  0.09858460    -0.75400
C1137       C  0.62361233  0.11947943  0.11794844     0.85400
N1138       N  0.62407672  0.14656711  0.13772843    -0.75300
C1139       C  0.65429987  0.18147119  0.13798291     0.85500
N1140       N  0.68418846  0.18924094  0.11870713    -0.77000
C1141       C  0.98371793  0.16994987  0.14126765     0.82900
N1142       N  0.00847522  0.19899955  0.12375109    -0.75400
C1143       C  0.53369288  0.19445905  0.10434129     0.85400
N1144       N  0.53352638  0.16078712  0.10272448    -0.75300
C1145       C  0.00831087  0.13159205  0.12028017     0.85500
N1146       N  0.98380737  0.13645705  0.13963701    -0.77000
C1147       C  0.81348449  0.33877794  0.11267758     0.82900
N1148       N  0.84797865  0.36903903  0.11723527    -0.75400
C1149       C  0.87365286  0.36701316  0.13703152     0.85400
N1150       N  0.86462350  0.33470808  0.15202373    -0.75300
C1151       C  0.83047818  0.30439873  0.14723424     0.85500
N1152       N  0.80470449  0.30629707  0.12764184    -0.77000
C1153       C  0.51612894  0.33213908  0.13644849     0.82900
N1154       N  0.49311112  0.30109967  0.11922034    -0.75400
C1155       C  0.96776475  0.30226623  0.09876604     0.85400
N1156       N  0.96469703  0.33418376  0.09629034    -0.75300
C1157       C  0.48666398  0.36500645  0.11396358     0.85500
N1158       N  0.51271513  0.36390184  0.13390273    -0.77000
Fe1159     Fe  0.84714090  0.12267907  0.25124218     1.65800
Fe1160     Fe  0.78748387  0.16229094  0.25241748     1.73200
Fe1161     Fe  0.88382748  0.21830063  0.24936743     1.54400
O1162       O  0.91293264  0.20718344  0.28420712    -0.79000
O1163       O  0.79722610  0.19946136  0.21679582    -0.77300
O1164       O  0.88816660  0.14489194  0.28593513    -0.81500
O1165       O  0.88754081  0.14194019  0.21630462    -0.76300
O1166       O  0.86327622  0.23997004  0.28388818    -0.78100
O1167       O  0.76738760  0.12005692  0.21888797    -0.80800
C1168       C  0.90962717  0.17356363  0.20499655     0.99900
C1169       C  0.91119720  0.17762805  0.29558115     1.07400
O1170       O  0.83948151  0.16774525  0.25099532    -1.09800
O1171       O  0.77067339  0.12431608  0.28806344    -0.72300
O1172       O  0.80773762  0.09675342  0.28619724    -0.75800
O1173       O  0.91080326  0.20391135  0.21450040    -0.76400
C1174       C  0.78026636  0.10045121  0.29752816     0.98800
O1175       O  0.80686504  0.09513044  0.21661380    -0.74400
O1176       O  0.80066980  0.20383203  0.28622450    -0.79600
C1177       C  0.82651126  0.22602842  0.20522165     1.01400
C1178       C  0.83105668  0.23183837  0.29522385     1.07400
O1179       O  0.85994744  0.23555103  0.21459810    -0.75200
C1180       C  0.77751224  0.09691441  0.20763204     1.05700
Fe1181     Fe  0.61183330  0.28411666  0.24618500     1.65800
Fe1182     Fe  0.70918410  0.32907860  0.24248780     1.73200
Fe1183     Fe  0.66045872  0.38027434  0.24423385     1.54400
O1184       O  0.61919181  0.36331292  0.20937544    -0.79000
O1185       O  0.73489519  0.37130314  0.27578680    -0.77300
O1186       O  0.58625650  0.30095520  0.21212604    -0.81500
O1187       O  0.58998648  0.30366525  0.28175094    -0.76300
O1188       O  0.70144725  0.40232085  0.20958129    -0.78100
O1189       O  0.69444947  0.29103937  0.27840518    -0.80800
C1190       C  0.59511999  0.33567727  0.29094985     0.99900
C1191       C  0.59221486  0.33198161  0.20052974     1.07400
O1192       O  0.66049444  0.33116262  0.24424557    -1.09800
O1193       O  0.68996847  0.28636444  0.20900687    -0.72300
O1194       O  0.62675562  0.25773510  0.21099230    -0.75800
O1195       O  0.61984302  0.36595449  0.27916979    -0.76400
C1196       C  0.65770996  0.26111550  0.19995485     0.98800
O1197       O  0.63121883  0.26129718  0.28044083    -0.74400
O1198       O  0.73096866  0.36720198  0.20656806    -0.79600
C1199       C  0.72893897  0.39714895  0.28742339     1.01400
C1200       C  0.72640085  0.39470406  0.19794869     1.07400
O1201       O  0.70166963  0.40293649  0.27901810    -0.75200
C1202       C  0.66351972  0.26660179  0.28983293     1.05700
C1203       C  0.97050846  0.00418669  0.39370254     0.05000
C1204       C  0.96987199  0.46871366  0.39038905     0.05000
C1205       C  0.50468425  0.46744104  0.38797051     0.05000
C1206       C  0.53946889  0.50064918  0.39075967     0.03400
C1207       C  0.53991276  0.03531696  0.39408866     0.05000
C1208       C  0.50542594  0.03728589  0.39585207     0.05000
C1209       C  0.70137819  0.02945523  0.35679308     0.82900
N1210       N  0.66934969  0.03320178  0.35571240    -0.75400
C1211       C  0.63882334  0.51082746  0.37380095     0.85400
N1212       N  0.64000260  0.48378236  0.39163105    -0.75300
C1213       C  0.67172397  0.47951194  0.39240058     0.85500
N1214       N  0.70266099  0.50253669  0.37555725    -0.77000
C1215       C  0.80922951  0.46754934  0.34952135     0.82900
N1216       N  0.80394680  0.99243780  0.36855793    -0.75400
C1217       C  0.83208549  0.01612423  0.38804792     0.85400
N1218       N  0.86542964  0.01487680  0.38930053    -0.75300
C1219       C  0.87095799  0.99012217  0.37085336     0.85500
N1220       N  0.84278876  0.46657733  0.35049488    -0.77000
C1221       C  0.98086683  0.17168841  0.36122913     0.82900
N1222       N  0.00821738  0.19904248  0.37915118    -0.75400
C1223       C  0.53052527  0.19039952  0.39792855     0.85400
N1224       N  0.52470838  0.15441188  0.39932458    -0.75300
C1225       C  0.99695438  0.12725049  0.38173224     0.85500
N1226       N  0.97556137  0.13612353  0.36244870    -0.77000
C1227       C  0.68645636  0.16525607  0.38929147     0.82900
N1228       N  0.65234511  0.13407812  0.39085521    -0.75400
C1229       C  0.62262018  0.13111636  0.37340908     0.85400
N1230       N  0.62720522  0.15954772  0.35441166    -0.75300
C1231       C  0.66110643  0.19093469  0.35295413     0.85500
N1232       N  0.69090912  0.19385492  0.37037071    -0.77000
C1233       C  0.52193648  0.33669487  0.35798605     0.82900
N1234       N  0.49859757  0.30387315  0.37201359    -0.75400
C1235       C  0.97301692  0.30251664  0.39377441     0.85400
N1236       N  0.97069914  0.33410192  0.40132433    -0.75300
C1237       C  0.49373001  0.36722514  0.38724206     0.85500
N1238       N  0.51938545  0.36829911  0.36549010    -0.77000
C1239       C  0.82082849  0.34210932  0.39577309     0.82900
N1240       N  0.81302047  0.31181809  0.37707230    -0.75400
C1241       C  0.83954244  0.31255328  0.35668355     0.85400
N1242       N  0.87372674  0.34351875  0.35483603    -0.75300
C1243       C  0.88185550  0.37378764  0.37361769     0.85500
N1244       N  0.85526801  0.37301826  0.39419033    -0.77000
C1245       C  0.50703975  0.07469839  0.40084174    -0.13700
C1246       C  0.99107699  0.08833775  0.38075928    -0.28900
H1247       H  0.02559667  0.09331970  0.41958038     0.15300
H1248       H  0.47414431  0.07019198  0.36106489     0.15900
C1249       C  0.57697903  0.07008510  0.39537725    -0.13700
C1250       C  0.58551014  0.09733349  0.37434605    -0.28900
H1251       H  0.59827111  0.07172436  0.41204331     0.15300
H1252       H  0.56448417  0.09462563  0.35694600     0.15900
C1253       C  0.91940056  0.40698708  0.37109525    -0.13700
C1254       C  0.93289001  0.43410630  0.39329828    -0.28900
H1255       H  0.93655693  0.40897674  0.35060312     0.15300
H1256       H  0.91517180  0.43261044  0.41326902     0.15900
C1257       C  0.93403912  0.00623178  0.39391468    -0.13700
C1258       C  0.90723386  0.98869010  0.37163066    -0.28900
H1259       H  0.93021595  0.02389029  0.41159657     0.15300
H1260       H  0.91196627  0.47234013  0.35259556     0.15900
C1261       C  0.60452210  0.51582323  0.37269502    -0.13700
C1262       C  0.57512086  0.49737659  0.39204745    -0.28900
H1263       H  0.60340348  0.53498441  0.35564492     0.15300
H1264       H  0.57584480  0.97686709  0.40751605     0.15900
C1265       C  0.49040156  0.40108328  0.39618216    -0.13700
C1266       C  0.50614197  0.43225913  0.37908111    -0.28900
H1267       H  0.97404750  0.39992456  0.41695484     0.15300
H1268       H  0.52323729  0.43336546  0.35877014     0.15900
C1269       C  0.66498174  0.22052612  0.33254522    -0.10600
C1270       C  0.66512347  0.24282618  0.31392407    -0.12100
C1271       C  0.54915334  0.33781567  0.33510332    -0.10600
C1272       C  0.57100559  0.33754854  0.31545052    -0.12100
C1273       C  0.75528933  0.42166067  0.31067238    -0.10600
C1274       C  0.77943051  0.44247950  0.32882005    -0.12100
C1275       C  0.95800750  0.17980717  0.33997215    -0.10600
C1276       C  0.93701767  0.18109475  0.32030829    -0.12100
C1277       C  0.73352712  0.05389884  0.33867683    -0.10600
C1278       C  0.75735822  0.07527425  0.32124267    -0.12100
C1279       C  0.82926417  0.25653032  0.31883705    -0.10600
C1280       C  0.83186693  0.28076611  0.33698326    -0.12100
C1281       C  0.56643524  0.33160146  0.17668944    -0.10600
C1282       C  0.54370108  0.33139018  0.15784464    -0.12100
C1283       C  0.82220663  0.27105806  0.16380629    -0.10600
C1284       C  0.82172122  0.24776242  0.18123636    -0.12100
C1285       C  0.95762972  0.17433624  0.16197879    -0.10600
C1286       C  0.93535718  0.17505450  0.18081113    -0.12100
C1287       C  0.65489899  0.21018344  0.15874794    -0.10600
C1288       C  0.65611989  0.23411592  0.17678196    -0.12100
C1289       C  0.72863590  0.04951101  0.16687047    -0.10600
C1290       C  0.75338205  0.07077275  0.18425464    -0.12100
C1291       C  0.75215495  0.41970217  0.17505141    -0.10600
C1292       C  0.77570794  0.44270940  0.15813892    -0.12100
C1293       C  0.56423257  0.06858202  0.13862964    -0.13700
C1294       C  0.59092403  0.08161408  0.11629907    -0.28900
H1295       H  0.56601502  0.08658594  0.15853168     0.15300
H1296       H  0.58853550  0.06406855  0.09589529     0.15900
C1297       C  0.99097401  0.06786932  0.13920150    -0.13700
C1298       C  0.00879409  0.09536698  0.11831406    -0.28900
H1299       H  0.97337935  0.07089585  0.15739738     0.15300
H1300       H  0.52584883  0.09177249  0.09974560     0.15900
C1301       C  0.59667854  0.01164361  0.14413442    -0.13700
C1302       C  0.56625296  0.49679816  0.12368282    -0.28900
H1303       H  0.59603885  0.52831331  0.16345984     0.15300
H1304       H  0.56649283  0.97920589  0.10502323     0.15900
C1305       C  0.49922472  0.42836680  0.13117721    -0.13700
C1306       C  0.48231890  0.39924702  0.11102231    -0.28900
H1307       H  0.51802218  0.42750507  0.14920130     0.15300
H1308       H  0.96522075  0.40053638  0.09218972     0.15900
C1309       C  0.92474430  0.42928420  0.12447385    -0.13700
C1310       C  0.91108658  0.39935381  0.14289573    -0.28900
H1311       H  0.90750572  0.43051800  0.10526655     0.15300
H1312       H  0.92788944  0.39847621  0.16259221     0.15900
C1313       C  0.92143303  0.49538711  0.14097320    -0.13700
C1314       C  0.90754051  0.01219330  0.12209419    -0.28900
H1315       H  0.90269660  0.97624447  0.15884723     0.15300
H1316       H  0.92560238  0.52960266  0.10308390     0.15900
C1317       C  0.82466364  0.06430353  0.42599456    -0.10600
C1318       C  0.82663170  0.04219864  0.40777562    -0.12100
C1319       C  0.81328607  0.04367365  0.08340518    -0.10600
C1320       C  0.81248857  0.06470321  0.06407832    -0.12100
C1321       C  0.71733245  0.16776403  0.40821595    -0.10600
C1322       C  0.74071136  0.16743524  0.42594023    -0.12100
C1323       C  0.92610631  0.24370420  0.42551702    -0.10600
C1324       C  0.94827396  0.26841323  0.40920512    -0.12100
C1325       C  0.73820936  0.17154523  0.05975903    -0.10600
C1326       C  0.71480713  0.16972264  0.07853523    -0.12100
C1327       C  0.94296325  0.26987171  0.08036557    -0.10600
C1328       C  0.92098997  0.24556965  0.06295715    -0.12100
C1329       C  0.55956324  0.21949554  0.41699996    -0.10600
C1330       C  0.58278025  0.24378679  0.43384391    -0.12100
C1331       C  0.58192654  0.24831071  0.06800274    -0.10600
C1332       C  0.55995102  0.22477791  0.08541837    -0.12100
C1333       C  0.67278908  0.45151836  0.41201937    -0.10600
C1334       C  0.67272353  0.42904691  0.43031581    -0.12100
C1335       C  0.79265509  0.34124669  0.41730654    -0.10600
C1336       C  0.76917706  0.34026380  0.43573699    -0.12100
C1337       C  0.66280443  0.42918616  0.06965087    -0.10600
C1338       C  0.66219856  0.45130130  0.08883163    -0.12100
C1339       C  0.78663935  0.34088047  0.09151269    -0.10600
C1340       C  0.76468941  0.34191190  0.07264495    -0.12100
Fe1341     Fe  0.72075197  0.38849691  0.50279501     1.65800
Fe1342     Fe  0.62208307  0.33843664  0.99929269     1.73200
Fe1343     Fe  0.67542408  0.29212174  0.00154532     1.54400
O1344       O  0.71508824  0.30902794  0.96589707    -0.79000
O1345       O  0.60068639  0.30252565  0.53465422    -0.77300
O1346       O  0.74742710  0.37132733  0.97107227    -0.81500
O1347       O  0.74473290  0.37229237  0.53836314    -0.76300
O1348       O  0.63343329  0.26561918  0.96803181    -0.78100
O1349       O  0.63797495  0.38261279  0.53219796    -0.80800
C1350       C  0.73989815  0.34119651  0.54878441     0.99900
C1351       C  0.74209805  0.34056278  0.95847811     1.07400
O1352       O  0.67221437  0.33958180  0.00135436    -1.09800
O1353       O  0.63956063  0.37982937  0.96551516    -0.72300
O1354       O  0.70289042  0.40995116  0.96649183    -0.75800
O1355       O  0.71501814  0.30987550  0.53810429    -0.76400
C1356       C  0.67131611  0.40472742  0.95550000     0.98800
O1357       O  0.70095861  0.41170853  0.53691606    -0.74400
O1358       O  0.60201278  0.29862092  0.96331320    -0.79600
C1359       C  0.60728375  0.27731930  0.54589674     1.01400
C1360       C  0.60765854  0.27114528  0.95576678     1.07400
O1361       O  0.63366369  0.27056638  0.53632185    -0.75200
C1362       C  0.66846868  0.40722674  0.54468227     1.05700
Fe1363     Fe  0.87235682  0.15236418  0.99574040     1.65800
Fe1364     Fe  0.77540745  0.11443128  0.99128503     1.73200
Fe1365     Fe  0.83463577  0.21066198  0.49289518     1.54400
O1366       O  0.87660397  0.23220313  0.52653742    -0.79000
O1367       O  0.75748847  0.13440916  0.95438647    -0.77300
O1368       O  0.90327848  0.19457692  0.52977840    -0.81500
O1369       O  0.90117946  0.19266069  0.96235121    -0.76300
O1370       O  0.79569092  0.19980099  0.52841590    -0.78100
O1371       O  0.79140639  0.08594406  0.95874781    -0.80800
C1372       C  0.89669649  0.21873051  0.95004022     0.99900
C1373       C  0.90027446  0.22325944  0.53827770     1.07400
O1374       O  0.83118292  0.16013783  0.49424098    -1.09800
O1375       O  0.79579288  0.08953198  0.53019753    -0.72300
O1376       O  0.85876354  0.11436414  0.52903197    -0.75800
O1377       O  0.87055517  0.22664427  0.95770926    -0.76400
C1378       C  0.82669068  0.09151137  0.53982807     0.98800
O1379       O  0.85459454  0.11266568  0.96005428    -0.74400
O1380       O  0.76065908  0.13759115  0.52972885    -0.79600
C1381       C  0.76420742  0.16681290  0.94602144     1.01400
C1382       C  0.76889015  0.17036569  0.53948760     1.07400
O1383       O  0.78961568  0.19665392  0.95854696    -0.75200
C1384       C  0.82272719  0.08867970  0.94927379     1.05700
C1385       C  0.96356879  0.50299586  0.62080651     0.05000
C1386       C  0.49714765  0.03609687  0.62673460     0.05000
C1387       C  0.53228306  0.03555055  0.62828478     0.05000
C1388       C  0.53319877  0.50139251  0.62390773     0.05000
C1389       C  0.49895060  0.46744621  0.62199011     0.05000
C1390       C  0.96408813  0.46818880  0.62003690     0.05000
C1391       C  0.79697210  0.46690038  0.63811523     0.82900
N1392       N  0.83002961  0.46587274  0.64245297    -0.75400
C1393       C  0.86132699  0.98972555  0.62703813     0.85400
N1394       N  0.85982946  0.01507375  0.60716212    -0.75300
C1395       C  0.82671432  0.01638589  0.60291247     0.85500
N1396       N  0.79496098  0.99212658  0.61838017    -0.77000
C1397       C  0.69720096  0.02935552  0.64755662     0.82900
N1398       N  0.66502785  0.03226163  0.65208254    -0.75400
C1399       C  0.63330949  0.01034443  0.63525176     0.85400
N1400       N  0.63315765  0.48419720  0.61407327    -0.75300
C1401       C  0.66502918  0.48050411  0.61010509     0.85500
N1402       N  0.69774425  0.00414983  0.62634348    -0.77000
C1403       C  0.68939805  0.16596467  0.60040678     0.82900
N1404       N  0.65914030  0.13141890  0.59856148    -0.75400
C1405       C  0.62777933  0.12304638  0.61592296     0.85400
N1406       N  0.62652069  0.14983170  0.63502454    -0.75300
C1407       C  0.65663821  0.18476384  0.63662064     0.85500
N1408       N  0.68822396  0.19281340  0.61935207    -0.77000
C1409       C  0.98676675  0.17281061  0.64212298     0.82900
N1410       N  0.01118173  0.20345697  0.62598525    -0.75400
C1411       C  0.53552358  0.20004373  0.60577736     0.85400
N1412       N  0.53646381  0.16715960  0.60198277    -0.75300
C1413       C  0.01302064  0.13736586  0.61807432     0.85500
N1414       N  0.98778399  0.13989210  0.63823712    -0.77000
C1415       C  0.81612665  0.34104699  0.61192279     0.82900
N1416       N  0.85047915  0.37197298  0.61413571    -0.75400
C1417       C  0.87788232  0.37214731  0.63312828     0.85400
N1418       N  0.87070598  0.34124070  0.64978952    -0.75300
C1419       C  0.83661567  0.31013275  0.64730553     0.85500
N1420       N  0.80918948  0.30998562  0.62842601    -0.77000
C1421       C  0.51572856  0.33530087  0.63711724     0.82900
N1422       N  0.49405365  0.30412809  0.61964216    -0.75400
C1423       C  0.96982516  0.30513562  0.59771018     0.85400
N1424       N  0.96754478  0.33720175  0.59337206    -0.75300
C1425       C  0.48892112  0.36817109  0.61071926     0.85500
N1426       N  0.51306892  0.36718688  0.63274513    -0.77000
Fe1427     Fe  0.84749459  0.12343994  0.75141840     1.65800
Fe1428     Fe  0.78937256  0.16460659  0.75181125     1.73200
Fe1429     Fe  0.88576101  0.21919191  0.75037908     1.54400
O1430       O  0.91172987  0.20763594  0.78715583    -0.79000
O1431       O  0.80199257  0.20622810  0.71903701    -0.77300
O1432       O  0.89029462  0.14569758  0.78469202    -0.81500
O1433       O  0.88610555  0.14144884  0.71510402    -0.76300
O1434       O  0.86347080  0.24187562  0.78285228    -0.78100
O1435       O  0.77116183  0.12613175  0.71533724    -0.80800
C1436       C  0.91103513  0.17328945  0.70616895     0.99900
C1437       C  0.91140092  0.17790563  0.79647746     1.07400
O1438       O  0.84087142  0.16903758  0.75120238    -1.09800
O1439       O  0.76904233  0.12238743  0.78458274    -0.72300
O1440       O  0.80972292  0.09917259  0.78780885    -0.75800
O1441       O  0.91464773  0.20386051  0.71775309    -0.76400
C1442       C  0.77990545  0.10040718  0.79640605     0.98800
O1443       O  0.80531244  0.09546108  0.71823513    -0.74400
O1444       O  0.80185142  0.20253228  0.78849988    -0.79600
C1445       C  0.83186578  0.23066388  0.70611944     1.01400
C1446       C  0.83170261  0.23206394  0.79591672     1.07400
O1447       O  0.86488202  0.23660349  0.71366332    -0.75200
C1448       C  0.77880207  0.10032713  0.70651470     1.05700
Fe1449     Fe  0.60877817  0.28405024  0.74555435     1.65800
Fe1450     Fe  0.70596159  0.33009599  0.74146808     1.73200
Fe1451     Fe  0.65654095  0.38035498  0.74754465     1.54400
O1452       O  0.61306942  0.36399814  0.71491477    -0.79000
O1453       O  0.73219264  0.37065993  0.77600101    -0.77300
O1454       O  0.58422677  0.30145782  0.71142624    -0.81500
O1455       O  0.58534354  0.30237629  0.78093232    -0.76300
O1456       O  0.69416478  0.40278050  0.71098305    -0.78100
O1457       O  0.69147599  0.29011759  0.77590639    -0.80800
C1458       C  0.59209588  0.33366970  0.79325742     0.99900
C1459       C  0.58828350  0.33312997  0.70318869     1.07400
O1460       O  0.65710062  0.33149825  0.74488573    -1.09800
O1461       O  0.68731886  0.28921874  0.70654251    -0.72300
O1462       O  0.62442617  0.25800178  0.71032654    -0.75800
O1463       O  0.61865274  0.36460368  0.78432481    -0.76400
C1464       C  0.65542376  0.26287391  0.69819945     0.98800
O1465       O  0.62821574  0.26150837  0.77969095    -0.74400
O1466       O  0.72593415  0.36981270  0.70659531    -0.79600
C1467       C  0.72717944  0.39680366  0.78819264     1.01400
C1468       C  0.71897679  0.39595110  0.69812173     1.07400
O1469       O  0.70012773  0.40321884  0.78044005    -0.75200
C1470       C  0.66063536  0.26607594  0.78792506     1.05700
C1471       C  0.96923286  0.00318646  0.89427861     0.05000
C1472       C  0.96971252  0.46820240  0.89118002     0.05000
C1473       C  0.50376423  0.46630845  0.88818307     0.05000
C1474       C  0.53863321  0.49953483  0.89034900     0.03400
C1475       C  0.53949182  0.03489762  0.89496881     0.05000
C1476       C  0.50484768  0.03651209  0.89720415     0.05000
C1477       C  0.70132298  0.02935142  0.85698336     0.82900
N1478       N  0.66933307  0.03321145  0.85634918    -0.75400
C1479       C  0.63803271  0.50989041  0.87297542     0.85400
N1480       N  0.63968984  0.48348292  0.89132185    -0.75300
C1481       C  0.67149968  0.47938516  0.89215509     0.85500
N1482       N  0.70216824  0.50205779  0.87471534    -0.77000
C1483       C  0.80809662  0.46608172  0.85081128     0.82900
N1484       N  0.80229308  0.99067806  0.86837499    -0.75400
C1485       C  0.83016742  0.01425020  0.88817572     0.85400
N1486       N  0.86359035  0.01315440  0.88956692    -0.75300
C1487       C  0.86950241  0.98873632  0.87097673     0.85500
N1488       N  0.84178271  0.46533895  0.85182450    -0.77000
C1489       C  0.98009646  0.17079640  0.86210897     0.82900
N1490       N  0.00782694  0.19820635  0.87963874    -0.75400
C1491       C  0.52982532  0.18947434  0.89851790     0.85400
N1492       N  0.52410263  0.15353471  0.90021465    -0.75300
C1493       C  0.99601098  0.12628644  0.88258205     0.85500
N1494       N  0.97451178  0.13516599  0.86345782    -0.77000
C1495       C  0.68501319  0.16563313  0.88640150     0.82900
N1496       N  0.65113863  0.13433416  0.88891342    -0.75400
C1497       C  0.62074987  0.13067178  0.87203492     0.85400
N1498       N  0.62447579  0.15855291  0.85268340    -0.75300
C1499       C  0.65822752  0.19002174  0.85036861     0.85500
N1500       N  0.68860033  0.19359599  0.86719359    -0.77000
C1501       C  0.51895590  0.33408922  0.86030245     0.82900
N1502       N  0.49565652  0.30166619  0.87479353    -0.75400
C1503       C  0.97058769  0.30125773  0.89602532     0.85400
N1504       N  0.96879340  0.33319042  0.90334904    -0.75300
C1505       C  0.49145184  0.36556502  0.88911505     0.85500
N1506       N  0.51675324  0.36596120  0.86732927    -0.77000
C1507       C  0.82037026  0.34279070  0.89552877     0.82900
N1508       N  0.81264213  0.31219706  0.87722336    -0.75400
C1509       C  0.83938566  0.31252627  0.85726795     0.85400
N1510       N  0.87366905  0.34334657  0.85547161    -0.75300
C1511       C  0.88169785  0.37385136  0.87388042     0.85500
N1512       N  0.85492492  0.37352103  0.89400246    -0.77000
C1513       C  0.50625178  0.07377400  0.90233011    -0.13700
C1514       C  0.98987988  0.08732839  0.88166836    -0.28900
H1515       H  0.02439456  0.09221988  0.92045315     0.15300
H1516       H  0.47304749  0.06894913  0.86271304     0.15900
C1517       C  0.57633375  0.06997721  0.89536656    -0.13700
C1518       C  0.58388922  0.09666883  0.87394618    -0.28900
H1519       H  0.59822574  0.07230937  0.91168467     0.15300
H1520       H  0.56224673  0.09327312  0.85691933     0.15900
C1521       C  0.91934294  0.40682475  0.87152032    -0.13700
C1522       C  0.93283094  0.43360349  0.89397262    -0.28900
H1523       H  0.93656083  0.40892242  0.85103753     0.15300
H1524       H  0.91512030  0.43191196  0.91400303     0.15900
C1525       C  0.93268848  0.00518791  0.89423614    -0.13700
C1526       C  0.90593641  0.98753874  0.87189937    -0.28900
H1527       H  0.92871901  0.02282642  0.91185195     0.15300
H1528       H  0.91099464  0.47139633  0.85386103     0.15900
C1529       C  0.60353309  0.51455970  0.87184159    -0.13700
C1530       C  0.57433694  0.49631515  0.89145059    -0.28900
H1531       H  0.60210903  0.53334787  0.85455871     0.15300
H1532       H  0.57614271  0.97700844  0.90869846     0.15900
C1533       C  0.48862762  0.39984123  0.89748665    -0.13700
C1534       C  0.50497350  0.43079146  0.88009744    -0.28900
H1535       H  0.97275763  0.39946990  0.91801603     0.15300
H1536       H  0.52218358  0.43135965  0.86003112     0.15900
C1537       C  0.66159887  0.21918674  0.82982052    -0.10600
C1538       C  0.66225167  0.24185560  0.81144409    -0.12100
C1539       C  0.54585431  0.33452787  0.83753385    -0.10600
C1540       C  0.56766763  0.33419902  0.81794823    -0.12100
C1541       C  0.75423710  0.42083396  0.81137496    -0.10600
C1542       C  0.77851012  0.44129996  0.82967132    -0.12100
C1543       C  0.95730493  0.17900046  0.84101078    -0.10600
C1544       C  0.93659114  0.18061694  0.82134450    -0.12100
C1545       C  0.73300610  0.05348687  0.83792266    -0.10600
C1546       C  0.75633800  0.07492025  0.81999243    -0.12100
C1547       C  0.82969824  0.25648338  0.81970446    -0.10600
C1548       C  0.83188011  0.28056048  0.83785466    -0.12100
C1549       C  0.56317753  0.33405025  0.67958158    -0.10600
C1550       C  0.54156603  0.33461578  0.66013761    -0.12100
C1551       C  0.82990140  0.27793303  0.66530421    -0.10600
C1552       C  0.82860808  0.25415569  0.68273148    -0.12100
C1553       C  0.95986613  0.17491827  0.66344382    -0.10600
C1554       C  0.93716551  0.17477298  0.68229390    -0.12100
C1555       C  0.65522034  0.21306855  0.65683475    -0.10600
C1556       C  0.65466162  0.23634925  0.67477025    -0.12100
C1557       C  0.73031147  0.05307302  0.66553186    -0.10600
C1558       C  0.75482477  0.07444392  0.68298957    -0.12100
C1559       C  0.74160322  0.42016652  0.67364446    -0.10600
C1560       C  0.76450941  0.44177057  0.65566930    -0.12100
C1561       C  0.56729141  0.07149744  0.63389183    -0.13700
C1562       C  0.59528488  0.08528867  0.61273383    -0.28900
H1563       H  0.56785690  0.08870078  0.65401426     0.15300
H1564       H  0.59417741  0.06843292  0.59218320     0.15900
C1565       C  0.99492049  0.07192953  0.63097123    -0.13700
C1566       C  0.01473533  0.10206730  0.61330320    -0.28900
H1567       H  0.97507508  0.07227057  0.64839192     0.15300
H1568       H  0.53272415  0.10031046  0.59521158     0.15900
C1569       C  0.59875481  0.01432550  0.64045986    -0.13700
C1570       C  0.56927499  0.49938603  0.61959220    -0.28900
H1571       H  0.59732951  0.53046827  0.66014243     0.15300
H1572       H  0.57007251  0.98181865  0.60089485     0.15900
C1573       C  0.50119838  0.43190962  0.62574114    -0.13700
C1574       C  0.48544960  0.40253597  0.60573936    -0.28900
H1575       H  0.51844571  0.43113626  0.64514937     0.15300
H1576       H  0.96956266  0.40378611  0.58610820     0.15900
C1577       C  0.92775510  0.43327014  0.61547971    -0.13700
C1578       C  0.91510795  0.40558264  0.63641689    -0.28900
H1579       H  0.90978454  0.43189431  0.59583736     0.15300
H1580       H  0.93270432  0.40737794  0.65647285     0.15900
C1581       C  0.92804175  0.50548747  0.61485602    -0.13700
C1582       C  0.89657840  0.98736560  0.63243098    -0.28900
H1583       H  0.92832314  0.02484155  0.59706977     0.15300
H1584       H  0.89701027  0.46929841  0.65107724     0.15900
C1585       C  0.82232423  0.06258169  0.92585217    -0.10600
C1586       C  0.82452543  0.04033075  0.90787350    -0.12100
C1587       C  0.82537798  0.04334681  0.58189532    -0.10600
C1588       C  0.82536825  0.06578664  0.56344430    -0.12100
C1589       C  0.71659153  0.16917612  0.90471318    -0.10600
C1590       C  0.74037219  0.16955285  0.92225050    -0.12100
C1591       C  0.92364859  0.24229248  0.92750969    -0.10600
C1592       C  0.94582750  0.26736033  0.91157480    -0.12100
C1593       C  0.74556796  0.17414079  0.56351245    -0.10600
C1594       C  0.72200753  0.17344429  0.58166099    -0.12100
C1595       C  0.94651979  0.27263392  0.57914596    -0.10600
C1596       C  0.92567323  0.24797049  0.56163205    -0.12100
C1597       C  0.55912558  0.21894772  0.91700945    -0.10600
C1598       C  0.58235215  0.24370141  0.93344659    -0.12100
C1599       C  0.58264764  0.25416889  0.56989009    -0.10600
C1600       C  0.56091736  0.23141612  0.58776694    -0.12100
C1601       C  0.67260783  0.45172701  0.91239210    -0.10600
C1602       C  0.67179267  0.42922450  0.93113672    -0.12100
C1603       C  0.79213091  0.34237739  0.91678164    -0.10600
C1604       C  0.76868724  0.34152654  0.93520197    -0.12100
C1605       C  0.66624833  0.43177531  0.56847299    -0.10600
C1606       C  0.66534606  0.45359418  0.58775246    -0.12100
C1607       C  0.78752923  0.34107067  0.59156774    -0.10600
C1608       C  0.76485316  0.34134135  0.57305478    -0.12100
Fe1609     Fe  0.71948600  0.88807555  0.00351564     1.65800
Fe1610     Fe  0.62389807  0.84119686  0.49863377     1.73200
Fe1611     Fe  0.67534538  0.79294185  0.50195210     1.54400
O1612       O  0.71740905  0.80919794  0.46817259    -0.79000
O1613       O  0.59829903  0.79757775  0.03301484    -0.77300
O1614       O  0.74705336  0.87181638  0.46863076    -0.81500
O1615       O  0.74208043  0.87255074  0.04046088    -0.76300
O1616       O  0.63552762  0.76777115  0.46661916    -0.78100
O1617       O  0.63520003  0.87846202  0.03487714    -0.80800
C1618       C  0.73940640  0.84158159  0.04908088     0.99900
C1619       C  0.74293833  0.84046070  0.45848662     1.07400
O1620       O  0.67348206  0.84107750  0.50092273    -1.09800
O1621       O  0.64104414  0.87876468  0.46229191    -0.72300
O1622       O  0.70398655  0.91226109  0.46701278    -0.75800
O1623       O  0.71674742  0.81039082  0.03656228    -0.76400
C1624       C  0.67274396  0.90521611  0.45407825     0.98800
O1625       O  0.69825385  0.91176184  0.03618756    -0.74400
O1626       O  0.60097650  0.79791803  0.46554790    -0.79600
C1627       C  0.60650444  0.77377885  0.04519571     1.01400
C1628       C  0.60798744  0.77181460  0.45626901     1.07400
O1629       O  0.63517284  0.76989905  0.03730474    -0.75200
C1630       C  0.66560532  0.90509042  0.04570795     1.05700
Fe1631     Fe  0.87869764  0.65466664  0.49442264     1.65800
Fe1632     Fe  0.78143373  0.61503650  0.49484535     1.73200
Fe1633     Fe  0.83064053  0.70988286  0.99291251     1.54400
O1634       O  0.87291752  0.73127313  0.02666772    -0.79000
O1635       O  0.75894466  0.63409357  0.46009180    -0.77300
O1636       O  0.89573532  0.69088287  0.03276396    -0.81500
O1637       O  0.90512298  0.69419677  0.46009898    -0.76300
O1638       O  0.79181905  0.69895526  0.02839691    -0.78100
O1639       O  0.79568577  0.58754358  0.46012066    -0.80800
C1640       C  0.90035852  0.72041722  0.44859028     0.99900
C1641       C  0.89469867  0.72091249  0.03998902     1.07400
O1642       O  0.82603676  0.65898205  0.99369429    -1.09800
O1643       O  0.78609785  0.58944697  0.02930108    -0.72300
O1644       O  0.84881905  0.61098839  0.02945325    -0.75800
O1645       O  0.87464296  0.72835889  0.45750361    -0.76400
C1646       C  0.81587660  0.58994592  0.03990233     0.98800
O1647       O  0.85900672  0.61424537  0.45935522    -0.74400
O1648       O  0.75232410  0.63767968  0.02347658    -0.79600
C1649       C  0.76618003  0.66584009  0.44942247     1.01400
C1650       C  0.76217029  0.66965031  0.03593348     1.07400
O1651       O  0.79365984  0.69620995  0.45900916    -0.75200
C1652       C  0.82659482  0.59040129  0.44937684     1.05700
C1653       C  0.95911746  0.99751671  0.13632095     0.05000
C1654       C  0.49307149  0.53220507  0.13617327     0.05000
C1655       C  0.52868311  0.53244865  0.13393109     0.05000
C1656       C  0.53030153  0.99776369  0.13131122     0.05000
C1657       C  0.49626115  0.96350628  0.13053045     0.05000
C1658       C  0.96055703  0.96355550  0.13174400     0.05000
C1659       C  0.80430995  0.97208280  0.13977021     0.82900
N1660       N  0.84088342  0.97816711  0.14083707    -0.75400
C1661       C  0.86797402  0.50510320  0.12267142     0.85400
N1662       N  0.85817770  0.52622216  0.10432628    -0.75300
C1663       C  0.82203389  0.52058257  0.10356062     0.85500
N1664       N  0.79495367  0.49317002  0.12097517    -0.77000
C1665       C  0.69466961  0.52637973  0.14876131     0.82900
N1666       N  0.66280391  0.52977648  0.15346991    -0.75400
C1667       C  0.63077381  0.50801386  0.13695038     0.85400
N1668       N  0.63084815  0.98204805  0.11643593    -0.75300
C1669       C  0.66269532  0.97852135  0.11144890     0.85500
N1670       N  0.69456299  0.50073109  0.12766401    -0.77000
C1671       C  0.68318048  0.66302514  0.09851263     0.82900
N1672       N  0.65281813  0.62847327  0.09774201    -0.75400
C1673       C  0.62314140  0.62011324  0.11727479     0.85400
N1674       N  0.62379771  0.64690139  0.13753948    -0.75300
C1675       C  0.65412557  0.68175706  0.13806854     0.85500
N1676       N  0.68389512  0.68975041  0.11861159    -0.77000
C1677       C  0.98268798  0.66938803  0.14054906     0.82900
N1678       N  0.00746516  0.69853246  0.12310577    -0.75400
C1679       C  0.53291308  0.69459553  0.10420941     0.85400
N1680       N  0.53270962  0.66091911  0.10227435    -0.75300
C1681       C  0.00791081  0.63138986  0.11990405     0.85500
N1682       N  0.98309674  0.63603050  0.13905566    -0.77000
C1683       C  0.81272591  0.83920931  0.11408690     0.82900
N1684       N  0.84727019  0.86944152  0.11853684    -0.75400
C1685       C  0.87290885  0.86747884  0.13842256     0.85400
N1686       N  0.86379341  0.83525642  0.15359113    -0.75300
C1687       C  0.82959627  0.80498162  0.14887542     0.85500
N1688       N  0.80388637  0.80681964  0.12919294    -0.77000
C1689       C  0.51617673  0.83181141  0.13675916     0.82900
N1690       N  0.49318246  0.80091746  0.11935158    -0.75400
C1691       C  0.96683377  0.80193273  0.09966852     0.85400
N1692       N  0.96376212  0.83384190  0.09717009    -0.75300
C1693       C  0.48670266  0.86485996  0.11461407     0.85500
N1694       N  0.51274323  0.86359042  0.13446540    -0.77000
Fe1695     Fe  0.84649503  0.62224476  0.25115612     1.65800
Fe1696     Fe  0.78709815  0.66213016  0.25305762     1.73200
Fe1697     Fe  0.88347621  0.71786844  0.24922903     1.54400
O1698       O  0.91291634  0.70666594  0.28365077    -0.79000
O1699       O  0.79657302  0.69935703  0.21755636    -0.77300
O1700       O  0.88777389  0.64435761  0.28566201    -0.81500
O1701       O  0.88666449  0.64137559  0.21597744    -0.76300
O1702       O  0.86347949  0.73967062  0.28409010    -0.78100
O1703       O  0.76652095  0.61986611  0.21949735    -0.80800
C1704       C  0.90862626  0.67292497  0.20446697     0.99900
C1705       C  0.91107475  0.67710751  0.29508740     1.07400
O1706       O  0.83901747  0.66740878  0.25112921    -1.09800
O1707       O  0.77052769  0.62419164  0.28873982    -0.72300
O1708       O  0.80730145  0.59635020  0.28631851    -0.75800
O1709       O  0.90990471  0.70332318  0.21396654    -0.76400
C1710       C  0.78006363  0.60020544  0.29798884     0.98800
O1711       O  0.80597291  0.59492915  0.21667481    -0.74400
O1712       O  0.80085660  0.70375288  0.28688236    -0.79600
C1713       C  0.82577775  0.72591868  0.20588344     1.01400
C1714       C  0.83141200  0.73169593  0.29568500     1.07400
O1715       O  0.85929511  0.73526673  0.21489216    -0.75200
C1716       C  0.77657621  0.59678854  0.20794656     1.05700
Fe1717     Fe  0.61217714  0.78417621  0.24669920     1.65800
Fe1718     Fe  0.70953598  0.82939030  0.24297610     1.73200
Fe1719     Fe  0.66050855  0.88032938  0.24459192     1.54400
O1720       O  0.61890811  0.86303610  0.20995204    -0.79000
O1721       O  0.73495141  0.87139952  0.27646450    -0.77300
O1722       O  0.58666074  0.80060198  0.21227081    -0.81500
O1723       O  0.58999008  0.80376844  0.28192041    -0.76300
O1724       O  0.70115538  0.90224437  0.20967628    -0.78100
O1725       O  0.69477263  0.79115132  0.27876815    -0.80800
C1726       C  0.59530993  0.83574750  0.29136559     0.99900
C1727       C  0.59226910  0.83160919  0.20086074     1.07400
O1728       O  0.66075197  0.83131251  0.24468755    -1.09800
O1729       O  0.69053379  0.78685070  0.20931403    -0.72300
O1730       O  0.62735455  0.75758734  0.21191106    -0.75800
O1731       O  0.62021650  0.86607618  0.27979891    -0.76400
C1732       C  0.65828646  0.76124374  0.20060798     0.98800
O1733       O  0.63156967  0.76186373  0.28132466    -0.74400
O1734       O  0.73144308  0.86780713  0.20722695    -0.79600
C1735       C  0.72911035  0.89742756  0.28783071     1.01400
C1736       C  0.72646042  0.89497380  0.19830754     1.07400
O1737       O  0.70202711  0.90336554  0.27913762    -0.75200
C1738       C  0.66388704  0.76702474  0.29051054     1.05700
C1739       C  0.97037855  0.50404628  0.39319210     0.05000
C1740       C  0.97021508  0.96895807  0.39078971     0.05000
C1741       C  0.50453938  0.96704925  0.38767687     0.05000
C1742       C  0.53936444  0.00023879  0.39023605     0.03400
C1743       C  0.53993216  0.53569694  0.39459356     0.05000
C1744       C  0.50539848  0.53759338  0.39619722     0.05000
C1745       C  0.70158389  0.52963327  0.35781104     0.82900
N1746       N  0.66969084  0.53362668  0.35683978    -0.75400
C1747       C  0.63853619  0.01032159  0.37268989     0.85400
N1748       N  0.63991500  0.98345714  0.39063031    -0.75300
C1749       C  0.67177376  0.97943801  0.39148552     0.85500
N1750       N  0.70265715  0.00255084  0.37465079    -0.77000
C1751       C  0.80923750  0.96755840  0.35015041     0.82900
N1752       N  0.80395810  0.49245679  0.36792387    -0.75400
C1753       C  0.83216573  0.51622352  0.38733409     0.85400
N1754       N  0.86551686  0.51500093  0.38852527    -0.75300
C1755       C  0.87102083  0.49023083  0.37009195     0.85500
N1756       N  0.84276847  0.96653355  0.35118758    -0.77000
C1757       C  0.98123932  0.67159464  0.36044094     0.82900
N1758       N  0.00852013  0.69899663  0.37837714    -0.75400
C1759       C  0.53018912  0.69065671  0.39831774     0.85400
N1760       N  0.52454691  0.65471699  0.39965562    -0.75300
C1761       C  0.99741061  0.62725267  0.38100331     0.85500
N1762       N  0.97601319  0.63606747  0.36168533    -0.77000
C1763       C  0.68660328  0.66549874  0.38984512     0.82900
N1764       N  0.65244386  0.63437672  0.39142825    -0.75400
C1765       C  0.62269998  0.63156018  0.37408821     0.85400
N1766       N  0.62732477  0.66007680  0.35517411    -0.75300
C1767       C  0.66127915  0.69140688  0.35371403     0.85500
N1768       N  0.69108873  0.69417264  0.37101675    -0.77000
C1769       C  0.52189597  0.83633454  0.35833819     0.82900
N1770       N  0.49838304  0.80347242  0.37223218    -0.75400
C1771       C  0.97354049  0.80295216  0.39400024     0.85400
N1772       N  0.97134108  0.83458716  0.40159224    -0.75300
C1773       C  0.49346556  0.86682801  0.38732946     0.85500
N1774       N  0.51931945  0.86792841  0.36578232    -0.77000
C1775       C  0.82124921  0.84235488  0.39579904     0.82900
N1776       N  0.81357763  0.81200117  0.37722889    -0.75400
C1777       C  0.84021473  0.81269517  0.35699367     0.85400
N1778       N  0.87438053  0.84368499  0.35516264    -0.75300
C1779       C  0.88238105  0.87400778  0.37383427     0.85500
N1780       N  0.85567478  0.87328265  0.39425125    -0.77000
C1781       C  0.50692236  0.57496665  0.40118813    -0.13700
C1782       C  0.99148887  0.58831745  0.38008262    -0.28900
H1783       H  0.02572804  0.59314404  0.41906351     0.15300
H1784       H  0.47438556  0.57055511  0.36119855     0.15900
C1785       C  0.57695975  0.57051608  0.39600430    -0.13700
C1786       C  0.58555403  0.59780561  0.37499527    -0.28900
H1787       H  0.59820741  0.57214551  0.41271378     0.15300
H1788       H  0.56458032  0.59512812  0.35755454     0.15900
C1789       C  0.91991539  0.90722122  0.37137545    -0.13700
C1790       C  0.93333630  0.93424555  0.39365566    -0.28900
H1791       H  0.93710423  0.90930708  0.35088142     0.15300
H1792       H  0.91558873  0.93261575  0.41364287     0.15900
C1793       C  0.93402807  0.50629783  0.39323339    -0.13700
C1794       C  0.90727127  0.48876834  0.37091122    -0.28900
H1795       H  0.93022747  0.52402810  0.41085663     0.15300
H1796       H  0.91194699  0.97234400  0.35325115     0.15900
C1797       C  0.60415820  0.01518410  0.37165775    -0.13700
C1798       C  0.57500465  0.99694278  0.39128518    -0.28900
H1799       H  0.60283117  0.03417775  0.35454205     0.15300
H1800       H  0.57575192  0.47710117  0.40816770     0.15900
C1801       C  0.49013501  0.90070643  0.39614810    -0.13700
C1802       C  0.50588304  0.93178541  0.37892705    -0.28900
H1803       H  0.97472517  0.90036250  0.41722799     0.15300
H1804       H  0.52292199  0.93275169  0.35861556     0.15900
C1805       C  0.66525477  0.72106981  0.33335944    -0.10600
C1806       C  0.66551638  0.74339193  0.31471045    -0.12100
C1807       C  0.54925174  0.83753153  0.33557572    -0.10600
C1808       C  0.57119028  0.83747899  0.31591573    -0.12100
C1809       C  0.75538285  0.92193948  0.31111989    -0.10600
C1810       C  0.77950109  0.94263526  0.32933795    -0.12100
C1811       C  0.95825610  0.67956685  0.33922998    -0.10600
C1812       C  0.93708194  0.68063647  0.31964743    -0.12100
C1813       C  0.73370284  0.55388344  0.33952521    -0.10600
C1814       C  0.75737807  0.57511521  0.32188207    -0.12100
C1815       C  0.82996488  0.75653364  0.31932714    -0.10600
C1816       C  0.83264592  0.78085315  0.33740817    -0.12100
C1817       C  0.56646264  0.83110141  0.17696404    -0.10600
C1818       C  0.54373092  0.83089843  0.15810584    -0.12100
C1819       C  0.82135192  0.77154867  0.16524596    -0.10600
C1820       C  0.82083593  0.74794349  0.18229307    -0.12100
C1821       C  0.95639309  0.67359949  0.16118834    -0.10600
C1822       C  0.93413806  0.67428769  0.18008456    -0.12100
C1823       C  0.65502235  0.71022934  0.15928173    -0.10600
C1824       C  0.65661059  0.73418525  0.17746481    -0.12100
C1825       C  0.72795627  0.54973844  0.16678036    -0.10600
C1826       C  0.75243704  0.57087548  0.18443072    -0.12100
C1827       C  0.75212612  0.92002771  0.17537371    -0.10600
C1828       C  0.77559453  0.94313908  0.15846244    -0.12100
C1829       C  0.56378137  0.56890110  0.13768110    -0.13700
C1830       C  0.59046082  0.58225456  0.11536928    -0.28900
H1831       H  0.56549671  0.58665920  0.15775083     0.15300
H1832       H  0.58811307  0.56493860  0.09480987     0.15900
C1833       C  0.99097678  0.56775383  0.13888679    -0.13700
C1834       C  0.00873365  0.59531096  0.11803770    -0.28900
H1835       H  0.97322172  0.57063250  0.15701454     0.15300
H1836       H  0.52501469  0.59189068  0.09881625     0.15900
C1837       C  0.59645908  0.51222144  0.14287496    -0.13700
C1838       C  0.56635257  0.99622594  0.12504627    -0.28900
H1839       H  0.59640804  0.02781188  0.16471753     0.15300
H1840       H  0.56650391  0.47981353  0.10367166     0.15900
C1841       C  0.49905160  0.92799945  0.13233893    -0.13700
C1842       C  0.48238547  0.89913975  0.11190623    -0.28900
H1843       H  0.51758158  0.92688402  0.15048480     0.15300
H1844       H  0.96417310  0.90010385  0.09305617     0.15900
C1845       C  0.92430965  0.92933098  0.12522394    -0.13700
C1846       C  0.91048681  0.89973047  0.14402571    -0.28900
H1847       H  0.90712486  0.93037324  0.10588837     0.15300
H1848       H  0.92727754  0.89904807  0.16381350     0.15900
C1849       C  0.92124787  0.99562328  0.14143738    -0.13700
C1850       C  0.90757071  0.51167570  0.12148341    -0.28900
H1851       H  0.90299118  0.47612910  0.15849971     0.15300
H1852       H  0.92564230  0.03021661  0.10377260     0.15900
C1853       C  0.82512126  0.56451914  0.42539761    -0.10600
C1854       C  0.82682212  0.54235288  0.40708345    -0.12100
C1855       C  0.81321892  0.54345222  0.08344771    -0.10600
C1856       C  0.81222621  0.56466375  0.06441246    -0.12100
C1857       C  0.71753010  0.66788586  0.40861849    -0.10600
C1858       C  0.74105367  0.66756929  0.42617351    -0.12100
C1859       C  0.92659812  0.74400595  0.42556487    -0.10600
C1860       C  0.94876227  0.76884615  0.40937547    -0.12100
C1861       C  0.73790101  0.67246489  0.05944587    -0.10600
C1862       C  0.71435748  0.67067979  0.07803343    -0.12100
C1863       C  0.94217278  0.76960503  0.08115165    -0.10600
C1864       C  0.92036156  0.74541750  0.06358225    -0.12100
C1865       C  0.55916476  0.71984960  0.41734984    -0.10600
C1866       C  0.58238404  0.74434507  0.43403666    -0.12100
C1867       C  0.58117062  0.74873894  0.06816563    -0.10600
C1868       C  0.55913755  0.72508797  0.08545085    -0.12100
C1869       C  0.67308933  0.95171699  0.41126892    -0.10600
C1870       C  0.67318395  0.92946686  0.42971285    -0.12100
C1871       C  0.79293612  0.84153975  0.41714379    -0.10600
C1872       C  0.76934569  0.84059014  0.43543068    -0.12100
C1873       C  0.66312657  0.92952104  0.06956333    -0.10600
C1874       C  0.66239760  0.95146536  0.08885363    -0.12100
C1875       C  0.78598586  0.84109300  0.09268792    -0.10600
C1876       C  0.76409611  0.84179841  0.07359346    -0.12100
Fe1877     Fe  0.72121137  0.88916463  0.50240635     1.65800
Fe1878     Fe  0.62223493  0.83865337  0.99928785     1.73200
Fe1879     Fe  0.67518376  0.79191093  0.00219198     1.54400
O1880       O  0.71545403  0.80858146  0.96701954    -0.79000
O1881       O  0.60126249  0.80387102  0.53477011    -0.77300
O1882       O  0.74725014  0.87100899  0.97105515    -0.81500
O1883       O  0.74503957  0.87279162  0.53800611    -0.76300
O1884       O  0.63376858  0.76567932  0.96818857    -0.78100
O1885       O  0.63877150  0.88401366  0.53172475    -0.80800
C1886       C  0.74004170  0.84160168  0.54835497     0.99900
C1887       C  0.74212882  0.84004687  0.95902405     1.07400
O1888       O  0.67225477  0.83953477  0.00163452    -1.09800
O1889       O  0.63989823  0.87959588  0.96513541    -0.72300
O1890       O  0.70318373  0.91014055  0.96687465    -0.75800
O1891       O  0.71509522  0.81036484  0.53760799    -0.76400
C1892       C  0.67172525  0.90474806  0.95550368     0.98800
O1893       O  0.70173295  0.91271051  0.53647789    -0.74400
O1894       O  0.60196403  0.79834823  0.96369090    -0.79600
C1895       C  0.60763358  0.77840816  0.54578796     1.01400
C1896       C  0.60786318  0.77106362  0.95599979     1.07400
O1897       O  0.63374047  0.77138276  0.53594450    -0.75200
C1898       C  0.66934107  0.90856123  0.54414721     1.05700
Fe1899     Fe  0.87213951  0.65252584  0.99626788     1.65800
Fe1900     Fe  0.77526209  0.61459133  0.99189398     1.73200
Fe1901     Fe  0.83518101  0.71059527  0.49294353     1.54400
O1902       O  0.87713121  0.73205193  0.52663068    -0.79000
O1903       O  0.75776795  0.63408034  0.95439287    -0.77300
O1904       O  0.90398413  0.69456550  0.52957599    -0.81500
O1905       O  0.90147174  0.69336855  0.96340408    -0.76300
O1906       O  0.79624064  0.69951021  0.52843898    -0.78100
O1907       O  0.79145699  0.58543846  0.96012832    -0.80800
C1908       C  0.89668286  0.71896568  0.95053409     0.99900
C1909       C  0.90089765  0.72315983  0.53825523     1.07400
O1910       O  0.83176771  0.66007975  0.49407509    -1.09800
O1911       O  0.79643378  0.58925224  0.52971545    -0.72300
O1912       O  0.85942961  0.61431954  0.52875038    -0.75800
O1913       O  0.87003894  0.72638410  0.95755580    -0.76400
C1914       C  0.82733811  0.59132931  0.53942832     0.98800
O1915       O  0.85472288  0.61344343  0.96016362    -0.74400
O1916       O  0.76128492  0.63727931  0.52961726    -0.79600
C1917       C  0.76407292  0.66642422  0.94619189     1.01400
C1918       C  0.76948208  0.67001636  0.53944859     1.07400
O1919       O  0.78907824  0.69635545  0.95894392    -0.75200
C1920       C  0.82280201  0.58871437  0.95010856     1.05700
C1921       C  0.96319760  0.00303310  0.62076634     0.05000
C1922       C  0.49707176  0.53643105  0.62556489     0.05000
C1923       C  0.53223812  0.53593846  0.62706016     0.05000
C1924       C  0.53315746  0.00096093  0.62507612     0.05000
C1925       C  0.49883162  0.96705833  0.62308906     0.05000
C1926       C  0.96355279  0.96813656  0.62005905     0.05000
C1927       C  0.79655364  0.96673564  0.63805614     0.82900
N1928       N  0.82965816  0.96581595  0.64242837    -0.75400
C1929       C  0.86165935  0.48956245  0.62689859     0.85400
N1930       N  0.86017770  0.51479986  0.60688966    -0.75300
C1931       C  0.82711966  0.51621711  0.60265259     0.85500
N1932       N  0.79539664  0.49218290  0.61829065    -0.77000
C1933       C  0.69645516  0.52829961  0.64778304     0.82900
N1934       N  0.66448700  0.53167321  0.65194722    -0.75400
C1935       C  0.63277770  0.50981945  0.63508643     0.85400
N1936       N  0.63390383  0.98515123  0.61388153    -0.75300
C1937       C  0.66599589  0.98194555  0.60953190     0.85500
N1938       N  0.69678935  0.50267664  0.62691740    -0.77000
C1939       C  0.68976354  0.66580527  0.59989369     0.82900
N1940       N  0.65933800  0.63140425  0.59777095    -0.75400
C1941       C  0.62786504  0.62316890  0.61491773     0.85400
N1942       N  0.62666758  0.64992782  0.63407514    -0.75300
C1943       C  0.65695289  0.68471143  0.63593640     0.85500
N1944       N  0.68866288  0.69264435  0.61889366    -0.77000
C1945       C  0.98547653  0.67211277  0.64111772     0.82900
N1946       N  0.00969143  0.70271428  0.62483701    -0.75400
C1947       C  0.53577487  0.70073445  0.60538695     0.85400
N1948       N  0.53661295  0.66781458  0.60137822    -0.75300
C1949       C  0.01235327  0.63696038  0.61756848     0.85500
N1950       N  0.98691145  0.63936562  0.63756581    -0.77000
C1951       C  0.81577422  0.84081044  0.61166042     0.82900
N1952       N  0.85008161  0.87175629  0.61396773    -0.75400
C1953       C  0.87740640  0.87198161  0.63307212     0.85400
N1954       N  0.87020121  0.84107655  0.64975935    -0.75300
C1955       C  0.83613907  0.80992830  0.64719656     0.85500
N1956       N  0.80878292  0.80974843  0.62819563    -0.77000
C1957       C  0.51501106  0.83441748  0.63754571     0.82900
N1958       N  0.49319072  0.80340447  0.61998945    -0.75400
C1959       C  0.96982989  0.80499691  0.59810889     0.85400
N1960       N  0.96724246  0.83690234  0.59370213    -0.75300
C1961       C  0.48838445  0.86767581  0.61150672     0.85500
N1962       N  0.51254173  0.86644609  0.63340260    -0.77000
Fe1963     Fe  0.84706641  0.62288017  0.75119146     1.65800
Fe1964     Fe  0.78896720  0.66414416  0.75158122     1.73200
Fe1965     Fe  0.88543380  0.71868955  0.75006789     1.54400
O1966       O  0.91200094  0.70700139  0.78631738    -0.79000
O1967       O  0.80136271  0.70543663  0.71853486    -0.77300
O1968       O  0.88976284  0.64495582  0.78457087    -0.81500
O1969       O  0.88579387  0.64093673  0.71497225    -0.76300
O1970       O  0.86356641  0.74109829  0.78315261    -0.78100
O1971       O  0.77048883  0.62530626  0.71535251    -0.80800
C1972       C  0.91023546  0.67274038  0.70553361     0.99900
C1973       C  0.91138012  0.67725638  0.79592998     1.07400
O1974       O  0.84048288  0.66853583  0.75094830    -1.09800
O1975       O  0.76880199  0.62220336  0.78458585    -0.72300
O1976       O  0.80912711  0.59851981  0.78744579    -0.75800
O1977       O  0.91366965  0.70337324  0.71682168    -0.76400
C1978       C  0.77948094  0.59998569  0.79621043     0.98800
O1979       O  0.80501032  0.59499250  0.71791614    -0.74400
O1980       O  0.80164485  0.70243966  0.78805655    -0.79600
C1981       C  0.83126132  0.73031063  0.70599739     1.01400
C1982       C  0.83168800  0.73156197  0.79592737     1.07400
O1983       O  0.86428734  0.73660013  0.71386887    -0.75200
C1984       C  0.77827571  0.59963786  0.70640159     1.05700
Fe1985     Fe  0.60873987  0.78318423  0.74545004     1.65800
Fe1986     Fe  0.70585400  0.82945367  0.74103765     1.73200
Fe1987     Fe  0.65618628  0.87939707  0.74695800     1.54400
O1988       O  0.61178518  0.86234628  0.71522335    -0.79000
O1989       O  0.73151338  0.86919753  0.77622410    -0.77300
O1990       O  0.58441526  0.79992905  0.71065499    -0.81500
O1991       O  0.58487737  0.80201576  0.78020107    -0.76300
O1992       O  0.69263100  0.90119089  0.70964691    -0.78100
O1993       O  0.69119251  0.78869634  0.77479999    -0.80800
C1994       C  0.59230264  0.83329172  0.79298205     0.99900
C1995       C  0.58766245  0.83148719  0.70301270     1.07400
O1996       O  0.65694427  0.83067592  0.74450607    -1.09800
O1997       O  0.68743378  0.78947891  0.70544924    -0.72300
O1998       O  0.62482356  0.75663869  0.71091033    -0.75800
O1999       O  0.61945133  0.86406337  0.78447347    -0.76400
C2000       C  0.65567359  0.76234765  0.69793015     0.98800
O2001       O  0.62816019  0.76150374  0.78026477    -0.74400
O2002       O  0.72629017  0.87000011  0.70683185    -0.79600
C2003       C  0.72711707  0.89610270  0.78750850     1.01400
C2004       C  0.71839117  0.89524632  0.69757892     1.07400
O2005       O  0.70070968  0.90309855  0.77893406    -0.75200
C2006       C  0.66058860  0.76543866  0.78766279     1.05700
C2007       C  0.96998312  0.50341356  0.89400316     0.05000
C2008       C  0.96902228  0.96799737  0.89152226     0.05000
C2009       C  0.50453760  0.96651874  0.88927470     0.05000
C2010       C  0.53926644  0.99992575  0.89139180     0.03400
C2011       C  0.53916294  0.53463780  0.89388923     0.05000
C2012       C  0.50468364  0.53659356  0.89590252     0.05000
C2013       C  0.70061740  0.52860260  0.85638056     0.82900
N2014       N  0.66856090  0.53232164  0.85550436    -0.75400
C2015       C  0.63886810  0.01078643  0.87389286     0.85400
N2016       N  0.64052670  0.98424747  0.89206398    -0.75300
C2017       C  0.67226393  0.98001053  0.89265830     0.85500
N2018       N  0.70285971  0.00266261  0.87513771    -0.77000
C2019       C  0.80793037  0.96608222  0.84982018     0.82900
N2020       N  0.80249472  0.49055852  0.86954077    -0.75400
C2021       C  0.83040294  0.51403960  0.88935416     0.85400
N2022       N  0.86388776  0.51302222  0.89055498    -0.75300
C2023       C  0.86978266  0.48873146  0.87176693     0.85500
N2024       N  0.84157692  0.96527984  0.85102035    -0.77000
C2025       C  0.98078243  0.67077731  0.86129767     0.82900
N2026       N  0.00837069  0.69823974  0.87891496    -0.75400
C2027       C  0.53042370  0.68986937  0.89816494     0.85400
N2028       N  0.52458803  0.65386965  0.89956319    -0.75300
C2029       C  0.99679590  0.62640237  0.88190004     0.85500
N2030       N  0.97531671  0.63519673  0.86268809    -0.77000
C2031       C  0.68507323  0.66509821  0.88623727     0.82900
N2032       N  0.65118203  0.63376148  0.88849761    -0.75400
C2033       C  0.62096735  0.63018893  0.87140928     0.85400
N2034       N  0.62487383  0.65816804  0.85212449    -0.75300
C2035       C  0.65861816  0.68965759  0.85006777     0.85500
N2036       N  0.68883412  0.69317363  0.86708913    -0.77000
C2037       C  0.51987395  0.83437863  0.86044141     0.82900
N2038       N  0.49647378  0.80188550  0.87478185    -0.75400
C2039       C  0.97084369  0.80146964  0.89665032     0.85400
N2040       N  0.96885143  0.83329952  0.90395113    -0.75300
C2041       C  0.49263296  0.86585303  0.88962847     0.85500
N2042       N  0.51786027  0.86630784  0.86772356    -0.77000
C2043       C  0.82009606  0.84187178  0.89589455     0.82900
N2044       N  0.81253608  0.81128884  0.87761819    -0.75400
C2045       C  0.83937841  0.81173715  0.85770104     0.85400
N2046       N  0.87358263  0.84267717  0.85591354    -0.75300
C2047       C  0.88142294  0.87318472  0.87427103     0.85500
N2048       N  0.85455512  0.87271546  0.89434818    -0.77000
C2049       C  0.50640853  0.57399109  0.90109342    -0.13700
C2050       C  0.99068347  0.58745968  0.88107882    -0.28900
H2051       H  0.02539878  0.59250318  0.91976485     0.15300
H2052       H  0.47354424  0.56969944  0.86137973     0.15900
C2053       C  0.57616242  0.56950938  0.89447676    -0.13700
C2054       C  0.58406603  0.59624440  0.87305207    -0.28900
H2055       H  0.59783338  0.57166942  0.91096654     0.15300
H2056       H  0.56261912  0.59299036  0.85587087     0.15900
C2057       C  0.91895659  0.90633645  0.87189804    -0.13700
C2058       C  0.93213591  0.93334225  0.89418324    -0.28900
H2059       H  0.93634950  0.90836741  0.85155685     0.15300
H2060       H  0.91421103  0.93171693  0.91403485     0.15900
C2061       C  0.93342643  0.50545332  0.89437892    -0.13700
C2062       C  0.90632345  0.48768860  0.87231602    -0.28900
H2063       H  0.92970454  0.52315077  0.91208606     0.15300
H2064       H  0.91080926  0.97123815  0.85356810     0.15900
C2065       C  0.60434570  0.01544588  0.87289556    -0.13700
C2066       C  0.57513419  0.99699317  0.89245026    -0.28900
H2067       H  0.60286360  0.03427446  0.85568809     0.15300
H2068       H  0.57525373  0.47637202  0.90779926     0.15900
C2069       C  0.48982722  0.90009059  0.89824962    -0.13700
C2070       C  0.50602602  0.93116329  0.88099845    -0.28900
H2071       H  0.97236421  0.89937917  0.91858217     0.15300
H2072       H  0.52324105  0.93193179  0.86087436     0.15900
C2073       C  0.66208422  0.71887914  0.82958378    -0.10600
C2074       C  0.66250876  0.74141549  0.81119245    -0.12100
C2075       C  0.54654926  0.83472760  0.83747473    -0.10600
C2076       C  0.56806584  0.83406520  0.81774780    -0.12100
C2077       C  0.75415437  0.92037937  0.81056875    -0.10600
C2078       C  0.77837407  0.94109773  0.82877441    -0.12100
C2079       C  0.95783352  0.67878792  0.84020081    -0.10600
C2080       C  0.93685521  0.68010883  0.82062297    -0.12100
C2081       C  0.73241742  0.55285614  0.83749817    -0.10600
C2082       C  0.75584479  0.57442285  0.81971042    -0.12100
C2083       C  0.82978523  0.75585940  0.81991003    -0.10600
C2084       C  0.83198745  0.77983951  0.83819966    -0.12100
C2085       C  0.56240963  0.83238838  0.67958275    -0.10600
C2086       C  0.54082632  0.83336206  0.66034894    -0.12100
C2087       C  0.82937653  0.77771591  0.66523582    -0.10600
C2088       C  0.82802179  0.75388804  0.68265341    -0.12100
C2089       C  0.95855449  0.67417965  0.66242021    -0.10600
C2090       C  0.93602747  0.67410844  0.68140653    -0.12100
C2091       C  0.65559385  0.71290482  0.65628853    -0.10600
C2092       C  0.65495724  0.73598165  0.67439652    -0.12100
C2093       C  0.72962465  0.55210327  0.66565827    -0.10600
C2094       C  0.75420611  0.57362434  0.68298883    -0.12100
C2095       C  0.74104540  0.91953727  0.67317671    -0.10600
C2096       C  0.76402835  0.94133112  0.65537146    -0.12100
C2097       C  0.56721313  0.57185312  0.63267731    -0.13700
C2098       C  0.59526375  0.58554472  0.61157983    -0.28900
H2099       H  0.56777664  0.58905345  0.65279946     0.15300
H2100       H  0.59416921  0.56868565  0.59103892     0.15900
C2101       C  0.99498355  0.57185518  0.63103816    -0.13700
C2102       C  0.01451895  0.60185113  0.61315394    -0.28900
H2103       H  0.97510087  0.57216810  0.64843476     0.15300
H2104       H  0.53279229  0.60093235  0.59428054     0.15900
C2105       C  0.59846462  0.51433998  0.63984104    -0.13700
C2106       C  0.56920080  0.99890779  0.62058780    -0.28900
H2107       H  0.59778895  0.03054037  0.66075734     0.15300
H2108       H  0.57032987  0.48244397  0.59985332     0.15900
C2109       C  0.50094475  0.93144761  0.62675923    -0.13700
C2110       C  0.48511214  0.90216408  0.60668350    -0.28900
H2111       H  0.51815983  0.93053457  0.64613513     0.15300
H2112       H  0.96877722  0.90332910  0.58632491     0.15900
C2113       C  0.92715088  0.93326375  0.61557059    -0.13700
C2114       C  0.91456558  0.90548809  0.63643760    -0.28900
H2115       H  0.90914751  0.93193460  0.59597027     0.15300
H2116       H  0.93217311  0.90724720  0.65647161     0.15900
C2117       C  0.92771659  0.00566788  0.61494260    -0.13700
C2118       C  0.89688479  0.48716830  0.63231645    -0.28900
H2119       H  0.92864936  0.52462463  0.59694888     0.15300
H2120       H  0.89670208  0.96944787  0.65115104     0.15900
C2121       C  0.82242710  0.56239572  0.92692629    -0.10600
C2122       C  0.82476744  0.54009538  0.90909481    -0.12100
C2123       C  0.82586154  0.54312895  0.58153334    -0.10600
C2124       C  0.82597908  0.56558032  0.56303270    -0.12100
C2125       C  0.71649323  0.66856148  0.90472425    -0.10600
C2126       C  0.74021825  0.66897979  0.92234678    -0.12100
C2127       C  0.92383205  0.74253559  0.92811646    -0.10600
C2128       C  0.94613078  0.76754487  0.91219390    -0.12100
C2129       C  0.74612466  0.67371808  0.56343534    -0.10600
C2130       C  0.72249871  0.67312015  0.58143237    -0.12100
C2131       C  0.94689603  0.77244676  0.57938682    -0.10600
C2132       C  0.92625173  0.74781151  0.56171935    -0.12100
C2133       C  0.55959713  0.71907626  0.91694884    -0.10600
C2134       C  0.58271011  0.74368942  0.93356204    -0.12100
C2135       C  0.58300575  0.75519857  0.56977898    -0.10600
C2136       C  0.56126767  0.73226591  0.58754910    -0.12100
C2137       C  0.67332488  0.95212846  0.91264601    -0.10600
C2138       C  0.67240626  0.92941590  0.93121423    -0.12100
C2139       C  0.79182043  0.84137139  0.91716714    -0.10600
C2140       C  0.76852803  0.84069654  0.93567910    -0.12100
C2141       C  0.66731386  0.93338435  0.56776893    -0.10600
C2142       C  0.66644027  0.95525406  0.58700943    -0.12100
C2143       C  0.78728675  0.84090549  0.59122463    -0.10600
C2144       C  0.76482653  0.84148055  0.57265002    -0.12100
loop_ 
_geom_bond_atom_site_label_1 
_geom_bond_atom_site_label_2 
_geom_bond_distance 
_geom_bond_site_symmetry_2 
_ccdc_geom_bond_type 
Fe1          O17   2.066       .  S
Fe1           O7   2.060       .  S
Fe1         O282   2.060   1_554  S
Fe1         O274   2.068   1_554  S
Fe1         O280   1.984       .  S
Fe2          O13   2.063       .  S
Fe2          O18   2.073       .  S
Fe2         O273   2.059       .  S
Fe2         O277   2.070       .  S
Fe2          O12   1.984       .  S
Fe3           O8   2.067       .  S
Fe3           O4   2.070       .  S
Fe3         O289   2.066       .  S
Fe3         O283   2.061       .  S
Fe3          O12   1.982       .  S
O4           C11   1.269       .  A
O5         Fe270   2.076   1_554  S
O5           C19   1.270       .  A
O6         Fe269   2.061       .  S
O6           C11   1.267       .  A
O7           C10   1.265       .  A
O8           C20   1.266       .  A
O9         Fe270   2.071   1_554  S
O9           C22   1.268       .  A
C10          O15   1.266       .  A
C10         C268   1.433       .  S
C11         C264   1.434       .  S
O12        Fe269   1.985       .  S
O13          C16   1.268       .  A
O14        Fe269   2.065       .  S
O14          C16   1.267       .  A
O15        Fe271   2.065       .  S
C16         C262   1.432       .  S
O17          C22   1.267       .  A
O18          C20   1.268       .  A
C19          O21   1.269       .  A
C19         C259   1.438       .  S
C20         C258   1.442       .  S
O21        Fe271   2.064       .  S
C22         C265   1.438       .  S
Fe23         O39   2.058       .  S
Fe23         O29   2.068       .  S
Fe23        O304   2.067       .  S
Fe23        O296   2.064       .  S
Fe23        O302   1.985       .  S
Fe24         O27   2.069       .  S
Fe24         O31   2.065       .  S
Fe24        O303   2.070       .  S
Fe24        O308   2.064       .  S
Fe24        O302   1.981       .  S
Fe25         O30   2.057   1_556  S
Fe25         O26   2.065   1_556  S
Fe25        O311   2.068       .  S
Fe25        O305   2.052       .  S
Fe25         O34   1.978       .  S
O26          C33   1.266       .  A
O27          C41   1.267       .  A
O28        Fe291   2.064   1_554  S
O28          C33   1.266       .  A
O29          C32   1.267       .  A
O30          C42   1.266       .  A
O31          C44   1.268       .  A
C32          O37   1.265       .  A
C32         C251   1.432       .  S
C33         C256   1.435       .  S
O34        Fe291   1.979       .  S
O34        Fe292   1.981       .  S
O35        Fe292   2.054   1_554  S
O35          C38   1.264       .  A
O36        Fe291   2.067   1_554  S
O36          C38   1.269       .  A
O37        Fe293   2.055       .  S
C38         C248   1.429       .  S
O39          C44   1.267       .  A
O40        Fe292   2.062   1_554  S
O40          C42   1.267       .  A
C41          O43   1.265       .  A
C41         C250   1.437       .  S
C42         C253   1.428       .  S
O43        Fe293   2.062       .  S
C44         C245   1.430       .  S
C45          C50   1.410       .  A
C45        C1654   1.414       .  A
C45         C241   1.492       .  S
C46          C47   1.420   1_655  A
C46        C1653   1.414   1_545  A
C46        C1297   1.492       .  S
C47         C584   1.422   1_545  A
C47         C221   1.489       .  S
C48          C49   1.414   1_455  A
C48         C583   1.422       .  A
C48         C230   1.491       .  S
C49        C1122   1.416       .  A
C49         C233   1.493       .  S
C50        C1121   1.416       .  A
C50         C237   1.482       .  S
C51         C220   1.441       .  S
C51          N52   1.363       .  A
C51         N592   1.360       .  A
N52         C589   1.363       .  A
C53         C242   1.476       .  S
C53          N54   1.351       .  A
C53         N588   1.364   1_545  A
N54          C55   1.351       .  A
C55         C247   1.428       .  S
C55          N56   1.357   1_545  A
N56         C587   1.359       .  A
C57         C217   1.433       .  S
C57          N58   1.356       .  A
C57          N62   1.357       .  A
N58          C59   1.355       .  A
C59         C229   1.478       .  S
C59         N596   1.362   1_545  A
N60          C61   1.359       .  A
N60         C595   1.362       .  A
C61         C266   1.439       .  S
C61         N598   1.358       .  A
N62         C597   1.359   1_545  A
C63         C254   1.428       .  S
C63          N64   1.354       .  A
C63          N68   1.355       .  A
N64          C65   1.354       .  A
C65         C222   1.475       .  S
C65          N66   1.362       .  A
N66          C67   1.360       .  A
C67         C215   1.437       .  S
C67          N68   1.357       .  A
C69         C213   1.433       .  S
C69          N70   1.359       .  A
C69          N74   1.356       .  A
N70        C1143   1.359       .  A
C71         C260   1.438       .  S
C71          N72   1.358       .  A
C71        N1142   1.358       .  A
N72        C1145   1.358       .  A
C73         C226   1.474       .  S
C73          N74   1.356       .  A
C73        N1144   1.358       .  A
C75         C267   1.434       .  S
C75          N76   1.358       .  A
C75          N80   1.357       .  A
N76          C77   1.361       .  A
C77         C238   1.471       .  S
C77          N78   1.351       .  A
N78          C79   1.353       .  A
C79         C211   1.424       .  S
C79          N80   1.356       .  A
C81         C210   1.442       .  S
C81          N82   1.360   1_455  A
C81          N86   1.358       .  A
N82        C1155   1.359       .  A
C83         C255   1.436       .  S
C83          N84   1.357       .  A
C83        N1154   1.359       .  A
N84        C1157   1.356       .  A
C85         C234   1.480       .  S
C85          N86   1.361   1_655  A
C85        N1156   1.356       .  A
Fe87        O103   2.070       .  S
Fe87         O93   2.064       .  S
Fe87        O100   2.068       .  S
Fe87         O92   2.066       .  S
Fe87         O98   1.982       .  S
Fe88         O91   2.054       .  S
Fe88         O95   2.058       .  S
Fe88         O99   2.050       .  S
Fe88        O104   2.062       .  S
Fe88         O98   1.983       .  S
Fe89        O107   2.058       .  S
Fe89         O94   2.052       .  S
Fe89        O101   2.059       .  S
Fe89         O90   2.064       .  S
Fe89         O98   1.982       .  S
O90          C97   1.267       .  A
O91         C105   1.264       .  A
O92          C97   1.269       .  A
O93          C96   1.266       .  A
O94         C106   1.264       .  A
O95         C108   1.266       .  A
C96         O101   1.264       .  A
C96         C214   1.433       .  S
C97         C204   1.433       .  S
O99         C102   1.264       .  A
O100        C102   1.266       .  A
C102        C206   1.430       .  S
O103        C108   1.268       .  A
O104        C106   1.265       .  A
C105        O107   1.267       .  A
C105        C212   1.425       .  S
C106        C207   1.428       .  S
C108        C218   1.433       .  S
Fe109       O125   2.070       .  S
Fe109       O115   2.064       .  S
Fe109       O122   2.063       .  S
Fe109       O114   2.073       .  S
Fe109       O120   1.984       .  S
Fe110       O113   2.063       .  S
Fe110       O117   2.064       .  S
Fe110       O121   2.069       .  S
Fe110       O126   2.067       .  S
Fe110       O120   1.985       .  S
Fe111       O129   2.072       .  S
Fe111       O116   2.073       .  S
Fe111       O123   2.075       .  S
Fe111       O112   2.075       .  S
Fe111       O120   1.985       .  S
O112        C119   1.270       .  A
O113        C127   1.267       .  A
O114        C119   1.269       .  A
O115        C118   1.266       .  A
O116        C128   1.268       .  A
O117        C130   1.266       .  A
C118        O123   1.268       .  A
C118        C200   1.441       .  S
C119        C209   1.442       .  S
O121        C124   1.268       .  A
O122        C124   1.266       .  A
C124        C216   1.436       .  S
O125        C130   1.269       .  A
O126        C128   1.267       .  A
C127        O129   1.269       .  A
C127        C201   1.436       .  S
C128        C219   1.441       .  S
C130        C198   1.437       .  S
C131        C668   1.421   1_545  A
C131       C1208   1.420       .  A
C131        C185   1.495       .  S
C132        C667   1.421       .  A
C132       C1205   1.420       .  A
C132        C182   1.489       .  S
C133        C134   1.412       .  A
C133       C1204   1.420   1_455  A
C133        C194   1.491       .  S
C134        C671   1.414       .  A
C134        C190   1.491       .  S
C135        C136   1.417       .  A
C135        C670   1.414       .  A
C135        C177   1.489       .  S
C136       C1203   1.420   1_455  A
C136        C173   1.494       .  S
C137        C205   1.431       .  S
C137        N138   1.357       .  A
C137        N678   1.357       .  A
N138        C675   1.356       .  A
C139        C189   1.476       .  S
C139        N140   1.359       .  A
C139        N674   1.356       .  A
N140        C141   1.356       .  A
C141        C261   1.432       .  S
C141        N142   1.357       .  A
N142        C673   1.356       .  A
C143        C202   1.437       .  S
C143        N148   1.359       .  A
C143        N680   1.356       .  A
N144        C145   1.356   1_565  A
N144        C679   1.356       .  A
C145        C246   1.430       .  S
C145        N146   1.356       .  A
N146        C147   1.357   1_545  A
C147        C186   1.475       .  S
C147        N684   1.360       .  A
N148        C683   1.360       .  A
C149        C203   1.433       .  S
C149        N150   1.358       .  A
C149        N154   1.352       .  A
N150       C1223   1.360       .  A
C151        C257   1.443       .  S
C151        N152   1.363       .  A
C151       N1222   1.360       .  A
N152       C1225   1.364   1_455  A
C153        C174   1.476       .  S
C153        N154   1.353       .  A
C153       N1224   1.363       .  A
C155        C249   1.437       .  S
C155        N156   1.357       .  A
C155        N160   1.360       .  A
N156        C157   1.358       .  A
C157        C178   1.472       .  S
C157        N158   1.356       .  A
N158        C159   1.356       .  A
C159        C197   1.437       .  S
C159        N160   1.360       .  A
C161        C199   1.441       .  S
C161        N162   1.359   1_455  A
C161        N166   1.360       .  A
N162       C1235   1.358       .  A
C163        C252   1.433       .  S
C163        N164   1.355       .  A
C163       N1234   1.357       .  A
N164       C1237   1.354       .  A
C165        C193   1.478       .  S
C165        N166   1.362   1_655  A
C165       N1236   1.354       .  A
C167        C263   1.434       .  S
C167        N168   1.356       .  A
C167        N172   1.359       .  A
N168        C169   1.355       .  A
C169        C208   1.428       .  S
C169        N170   1.355       .  A
N170        C171   1.355       .  A
C171        C181   1.475       .  S
C171        N172   1.361       .  A
C173       C1246   1.341   1_455  D
C173       H1247   1.087       .  S
C174       C1245   1.341       .  D
C174       H1248   1.087       .  S
H175       C1245   1.087       .  S
H176       C1246   1.087       .  S
C177        C178   1.344       .  D
C177        H179   1.086       .  S
C178        H180   1.086       .  S
C181        C182   1.341       .  D
C181        H183   1.086       .  S
C182        H184   1.087       .  S
C185        C186   1.349   1_545  D
C185        H187   1.086       .  S
C186        H724   1.086       .  S
H188        C722   1.086       .  S
C189        C190   1.343       .  D
C189        H191   1.085       .  S
C190        H728   1.086       .  S
H192        C726   1.086       .  S
C193        C194   1.340   1_655  D
C193       H1267   1.086       .  S
C194        H196   1.087       .  S
H195       C1265   1.086       .  S
C197        C198   1.207       .  T
C199        C200   1.209       .  T
C201        C202   1.207       .  T
C203        C204   1.205       .  T
C205        C206   1.203       .  T
C207        C208   1.201       .  T
C209        C210   1.210       .  T
C211        C212   1.199       .  T
C213        C214   1.204       .  T
C215        C216   1.206       .  T
C217        C218   1.205       .  T
C219        C220   1.209       .  T
C221        C222   1.340       .  D
C221        H223   1.087       .  S
C222        H224   1.087       .  S
C225       C1118   1.493       .  S
C225        C226   1.347       .  D
C225        H227   1.086       .  S
C226       H1300   1.086       .  S
H228       C1298   1.086       .  S
C229        C766   1.340   1_545  D
C229        H767   1.086       .  S
C230        C765   1.340       .  D
C230        H768   1.087       .  S
H231        C765   1.086       .  S
H232        C766   1.087       .  S
C233        C234   1.342       .  D
C233        H235   1.087   1_655  S
C234       H1308   1.086       .  S
H236       C1306   1.086       .  S
C237        C238   1.335       .  D
C237        H239   1.087       .  S
C238        H240   1.086       .  S
C241        C778   1.337       .  D
C241        H779   1.086       .  S
C242        C777   1.337   1_545  D
C242        H780   1.086       .  S
H243        C777   1.086       .  S
H244        C778   1.086       .  S
C245        C246   1.203       .  T
C247        C248   1.202       .  T
C249        C250   1.207       .  T
C251        C252   1.204       .  T
C253        C254   1.202       .  T
C255        C256   1.206       .  T
C257        C258   1.210       .  T
C259        C260   1.207       .  T
C261        C262   1.204       .  T
C263        C264   1.205       .  T
C265        C266   1.208       .  T
C267        C268   1.205       .  T
Fe269       O285   2.061       .  S
Fe269       O275   2.065       .  S
Fe270       O281   2.080       .  S
Fe270       O286   2.070       .  S
Fe270       O280   1.982   1_556  S
Fe271       O276   2.067   1_554  S
Fe271       O272   2.066   1_554  S
Fe271       O280   1.981       .  S
O272        C279   1.268       .  A
O273        C287   1.267       .  A
O274        C279   1.268       .  A
O275        C278   1.266       .  A
O276        C288   1.266       .  A
O277        C290   1.267       .  A
C278        O283   1.265       .  A
C278        C536   1.434       .  S
C279        C532   1.435       .  S
O281        C284   1.271       .  A
O282        C284   1.266       .  A
C284        C530   1.439       .  S
O285        C290   1.265       .  A
O286        C288   1.268       .  A
C287        O289   1.269       .  A
C287        C527   1.430       .  S
C288        C526   1.439       .  S
C290        C533   1.436       .  S
Fe291       O307   2.057       .  S
Fe291       O297   2.073       .  S
Fe292       O295   2.053       .  S
Fe292       O299   2.068       .  S
Fe293       O298   2.061       .  S
Fe293       O294   2.055       .  S
Fe293       O302   1.982       .  S
O294        C301   1.266       .  A
O295        C309   1.265       .  A
O296        C301   1.267       .  A
O297        C300   1.269       .  A
O298        C310   1.266       .  A
O299        C312   1.267       .  A
C300        O305   1.266       .  A
C300        C519   1.430       .  S
C301        C524   1.429       .  S
O303        C306   1.267       .  A
O304        C306   1.267       .  A
C306        C516   1.440       .  S
O307        C312   1.265       .  A
O308        C310   1.268       .  A
C309        O311   1.267       .  A
C309        C518   1.431       .  S
C310        C521   1.432       .  S
C312        C513   1.432       .  S
C313       C1922   1.408       .  A
C313        C318   1.416       .  A
C313        C509   1.490       .  S
C314       C1921   1.409       .  A
C314        C315   1.415   1_655  A
C314       C1565   1.488       .  S
C315        C852   1.418       .  A
C315        C489   1.486       .  S
C316        C851   1.418       .  A
C316        C317   1.414   1_455  A
C316        C498   1.490       .  S
C317       C1390   1.420       .  A
C317        C501   1.491   1_655  S
C318       C1389   1.420       .  A
C318        C505   1.485       .  S
C319        C488   1.432       .  S
C319        N320   1.353       .  A
C319        N860   1.359       .  A
N320        C857   1.352       .  A
C321        C510   1.473       .  S
C321        N856   1.352       .  A
C321        N322   1.361   1_565  A
N322        C323   1.360       .  A
C323        C515   1.441       .  S
C323        N324   1.360   1_545  A
N324        C855   1.359       .  A
C325        C485   1.430       .  S
C325        N326   1.355       .  A
C325        N330   1.357       .  A
N326        C327   1.354       .  A
C327        C497   1.476       .  S
C327        N864   1.361   1_545  A
N328        C863   1.361       .  A
N328        C329   1.358       .  A
C329        C534   1.436       .  S
C329        N866   1.357       .  A
N330        C865   1.357   1_545  A
C331        C522   1.431       .  S
C331        N332   1.353       .  A
C331        N336   1.358       .  A
N332        C333   1.352       .  A
C333        C490   1.472       .  S
C333        N334   1.361       .  A
N334        C335   1.360       .  A
C335        C483   1.440       .  S
C335        N336   1.360       .  A
C337        C481   1.434       .  S
C337        N338   1.358       .  A
C337        N342   1.357       .  A
N338       C1411   1.358       .  A
C339        C528   1.430       .  S
C339       N1410   1.358       .  A
C339        N340   1.354       .  A
N340       C1413   1.353       .  A
C341        C494   1.469       .  S
C341       N1412   1.353       .  A
C341        N342   1.358       .  A
C343        C535   1.435       .  S
C343        N344   1.357       .  A
C343        N348   1.359       .  A
N344        C345   1.359       .  A
C345        C506   1.472       .  S
C345        N346   1.355       .  A
N346        C347   1.356       .  A
C347        C479   1.434       .  S
C347        N348   1.358       .  A
C349        C478   1.434       .  S
C349        N350   1.356   1_455  A
C349        N354   1.357       .  A
N350       C1423   1.355       .  A
C351        C523   1.430       .  S
C351       N1422   1.356       .  A
C351        N352   1.356       .  A
N352       C1425   1.355       .  A
C353        C502   1.477       .  S
C353       N1424   1.355       .  A
C353        N354   1.361   1_655  A
Fe355       O371   2.069       .  S
Fe355       O361   2.062       .  S
Fe355       O368   2.066       .  S
Fe355       O360   2.065       .  S
Fe355       O366   1.981       .  S
Fe356       O359   2.073       .  S
Fe356       O363   2.055       .  S
Fe356       O367   2.069       .  S
Fe356       O372   2.060       .  S
Fe356       O366   1.979       .  S
Fe357       O375   2.055       .  S
Fe357       O362   2.060       .  S
Fe357       O369   2.064       .  S
Fe357       O358   2.056       .  S
Fe357       O366   1.980       .  S
O358        C365   1.265       .  A
O359        C373   1.268       .  A
O360        C365   1.268       .  A
O361        C364   1.266       .  A
O362        C374   1.266       .  A
O363        C376   1.267       .  A
C364        O369   1.266       .  A
C364        C482   1.433       .  S
C365        C472   1.429       .  S
O367        C370   1.267       .  A
O368        C370   1.266       .  A
C370        C474   1.438       .  S
O371        C376   1.268       .  A
O372        C374   1.266       .  A
C373        O375   1.265       .  A
C373        C480   1.434       .  S
C374        C475   1.429       .  S
C376        C486   1.430       .  S
Fe377       O393   2.062       .  S
Fe377       O383   2.071       .  S
Fe377       O390   2.073       .  S
Fe377       O382   2.062       .  S
Fe377       O388   1.983       .  S
Fe378       O381   2.064       .  S
Fe378       O385   2.070       .  S
Fe378       O389   2.063       .  S
Fe378       O394   2.070       .  S
Fe378       O388   1.981       .  S
Fe379       O397   2.074       .  S
Fe379       O384   2.057       .  S
Fe379       O391   2.058       .  S
Fe379       O380   2.069       .  S
Fe379       O388   1.984       .  S
O380        C387   1.268       .  A
O381        C395   1.266       .  A
O382        C387   1.268       .  A
O383        C386   1.267       .  A
O384        C396   1.265       .  A
O385        C398   1.269       .  A
C386        O391   1.265       .  A
C386        C468   1.435       .  S
C387        C477   1.433       .  S
O389        C392   1.265       .  A
O390        C392   1.267       .  A
C392        C484   1.440       .  S
O393        C398   1.268       .  A
O394        C396   1.269       .  A
C395        O397   1.268       .  A
C395        C469   1.440       .  S
C396        C487   1.433       .  S
C398        C466   1.433       .  S
C399        C936   1.421   1_545  A
C399       C1476   1.420       .  A
C399        C453   1.499       .  S
C400        C935   1.420       .  A
C400       C1473   1.421       .  A
C400        C450   1.488       .  S
C401       C1472   1.421   1_455  A
C401        C402   1.413       .  A
C401        C462   1.494       .  S
C402        C939   1.415       .  A
C402        C458   1.492       .  S
C403        C938   1.414   1_545  A
C403        C404   1.417       .  A
C403        C445   1.489       .  S
C404       C1471   1.420   1_455  A
C404        C441   1.493       .  S
C405        C473   1.438       .  S
C405        N406   1.357       .  A
C405        N946   1.361       .  A
N406        C943   1.356       .  A
C407        C457   1.476       .  S
C407        N942   1.356       .  A
C407        N408   1.359       .  A
N408        C409   1.356       .  A
C409        C529   1.439       .  S
C409        N410   1.361       .  A
N410        C941   1.361       .  A
C411        C470   1.441       .  S
C411        N948   1.357       .  A
C411        N416   1.359       .  A
N412        C947   1.357       .  A
N412        C413   1.357   1_565  A
C413        C514   1.432       .  S
C413        N414   1.357       .  A
N414        C415   1.358   1_545  A
C415        C454   1.479       .  S
C415        N952   1.361       .  A
N416        C951   1.361       .  A
C417        C471   1.429       .  S
C417        N418   1.356       .  A
C417        N422   1.351       .  A
N418       C1491   1.358       .  A
C419        C525   1.440       .  S
C419       N1490   1.358       .  A
C419        N420   1.363       .  A
N420       C1493   1.364   1_455  A
C421        C442   1.475       .  S
C421       N1492   1.364       .  A
C421        N422   1.352       .  A
C423        C517   1.432       .  S
C423        N424   1.357       .  A
C423        N428   1.357       .  A
N424        C425   1.358       .  A
C425        C446   1.472       .  S
C425        N426   1.356       .  A
N426        C427   1.356       .  A
C427        C465   1.433       .  S
C427        N428   1.357       .  A
C429        C467   1.436       .  S
C429        N430   1.356   1_455  A
C429        N434   1.360       .  A
N430       C1503   1.355       .  A
C431        C520   1.431       .  S
C431       N1502   1.356       .  A
C431        N432   1.356       .  A
N432       C1505   1.355       .  A
C433        C461   1.479       .  S
C433       N1504   1.356       .  A
C433        N434   1.362   1_655  A
C435        C531   1.436       .  S
C435        N436   1.357       .  A
C435        N440   1.359       .  A
N436        C437   1.356       .  A
C437        C476   1.429       .  S
C437        N438   1.355       .  A
N438        C439   1.354       .  A
C439        C449   1.473       .  S
C439        N440   1.361       .  A
C441       C1514   1.339   1_455  D
C441       H1515   1.087       .  S
C442       C1513   1.339       .  D
C442       H1516   1.087       .  S
H443       C1513   1.087       .  S
H444       C1514   1.087       .  S
C445        C446   1.344       .  D
C445        H447   1.086       .  S
C446        H448   1.086       .  S
C449        C450   1.340       .  D
C449        H451   1.086       .  S
C450        H452   1.087       .  S
C453        C454   1.350   1_545  D
C453        H455   1.086       .  S
C454        H992   1.086       .  S
H456        C990   1.086       .  S
C457        C458   1.343       .  D
C457        H459   1.085       .  S
C458        H996   1.086       .  S
H460        C994   1.086       .  S
C461        C462   1.341   1_655  D
C461       H1535   1.086       .  S
C462        H464   1.087       .  S
H463       C1533   1.086       .  S
C465        C466   1.204       .  T
C467        C468   1.206       .  T
C469        C470   1.209       .  T
C471        C472   1.202       .  T
C473        C474   1.208       .  T
C475        C476   1.202       .  T
C477        C478   1.205       .  T
C479        C480   1.205       .  T
C481        C482   1.205       .  T
C483        C484   1.209       .  T
C485        C486   1.203       .  T
C487        C488   1.204       .  T
C489        C490   1.339       .  D
C489        H491   1.087       .  S
C490        H492   1.087       .  S
C493       C1386   1.487       .  S
C493        C494   1.339       .  D
C493        H495   1.087       .  S
C494       H1568   1.086       .  S
H496       C1566   1.086       .  S
C497       C1034   1.340   1_545  D
C497       H1035   1.086       .  S
C498       C1033   1.340       .  D
C498       H1036   1.087       .  S
H499       C1033   1.086       .  S
H500       C1034   1.087       .  S
C501        C502   1.341   1_455  D
C501        H503   1.087       .  S
C502       H1576   1.086       .  S
H504       C1574   1.086       .  S
C505        C506   1.341       .  D
C505        H507   1.086       .  S
C506        H508   1.086       .  S
C509       C1046   1.339       .  D
C509       H1047   1.086       .  S
C510       C1045   1.339   1_565  D
C510       H1048   1.086       .  S
H511       C1045   1.086       .  S
H512       C1046   1.086       .  S
C513        C514   1.204       .  T
C515        C516   1.209       .  T
C517        C518   1.203       .  T
C519        C520   1.203       .  T
C521        C522   1.204       .  T
C523        C524   1.202       .  T
C525        C526   1.208       .  T
C527        C528   1.203       .  T
C529        C530   1.208       .  T
C531        C532   1.206       .  T
C533        C534   1.206       .  T
C535        C536   1.205       .  T
Fe537       O553   2.066       .  S
Fe537       O543   2.061       .  S
Fe537       O818   2.060   1_554  S
Fe537       O810   2.068   1_554  S
Fe537       O816   1.984       .  S
Fe538       O809   2.058       .  S
Fe538       O813   2.071       .  S
Fe538       O549   2.063       .  S
Fe538       O554   2.074       .  S
Fe538       O548   1.984       .  S
Fe539       O825   2.066       .  S
Fe539       O544   2.068       .  S
Fe539       O819   2.062       .  S
Fe539       O540   2.071       .  S
Fe539       O548   1.982       .  S
O540        C547   1.269       .  A
O541       Fe806   2.076   1_554  S
O541        C555   1.270       .  A
O542       Fe805   2.061       .  S
O542        C547   1.267       .  A
O543        C546   1.266       .  A
O544        C556   1.266       .  A
O545       Fe806   2.072   1_554  S
O545        C558   1.268       .  A
C546        O551   1.266       .  A
C546        C804   1.435       .  S
C547        C800   1.434       .  S
O548       Fe805   1.984       .  S
O549        C552   1.267       .  A
O550       Fe805   2.064       .  S
O550        C552   1.267       .  A
O551       Fe807   2.066       .  S
C552        C798   1.432       .  S
O553        C558   1.267       .  A
O554        C556   1.268       .  A
C555        O557   1.269       .  A
C555        C795   1.438       .  S
C556        C794   1.443       .  S
O557       Fe807   2.066       .  S
C558        C801   1.439       .  S
Fe559       O575   2.056       .  S
Fe559       O565   2.069       .  S
Fe559       O840   2.068       .  S
Fe559       O832   2.062       .  S
Fe559       O838   1.985       .  S
Fe560       O563   2.069       .  S
Fe560       O567   2.067       .  S
Fe560       O839   2.070       .  S
Fe560       O844   2.065       .  S
Fe560       O838   1.981       .  S
Fe561       O847   2.068       .  S
Fe561       O566   2.059   1_556  S
Fe561       O841   2.052       .  S
Fe561       O562   2.065   1_556  S
Fe561       O570   1.979       .  S
O562        C569   1.266       .  A
O563        C577   1.267       .  A
O564       Fe827   2.065   1_554  S
O564        C569   1.266       .  A
O565        C568   1.267       .  A
O566        C578   1.266       .  A
O567        C580   1.268       .  A
C568        O573   1.265       .  A
C568        C787   1.432       .  S
C569        C792   1.436       .  S
O570       Fe827   1.980       .  S
O570       Fe828   1.981       .  S
O571       Fe828   2.053   1_554  S
O571        C574   1.264       .  A
O572       Fe827   2.068   1_554  S
O572        C574   1.269       .  A
O573       Fe829   2.054       .  S
C574        C784   1.430       .  S
O575        C580   1.267       .  A
O576       Fe828   2.063   1_554  S
O576        C578   1.267       .  A
C577        O579   1.265       .  A
C577        C786   1.437       .  S
C578        C789   1.429       .  S
O579       Fe829   2.062       .  S
C580        C781   1.429       .  S
C581       C1118   1.415   1_565  A
C581        C586   1.410       .  A
C581        C777   1.492       .  S
C582       C1117   1.415       .  A
C582        C583   1.420   1_655  A
C582       C1833   1.493       .  S
C583        C757   1.489       .  S
C584        C585   1.414   1_455  A
C584        C766   1.492       .  S
C585       C1658   1.416       .  A
C585        C769   1.493       .  S
C586       C1657   1.416       .  A
C586        C773   1.483       .  S
C587        C756   1.442       .  S
C587        N588   1.363       .  A
C589        C778   1.475       .  S
C589        N590   1.351       .  A
N590        C591   1.351       .  A
C591        C783   1.428       .  S
C591        N592   1.357       .  A
C593        C753   1.433       .  S
C593        N594   1.356       .  A
C593        N598   1.357       .  A
N594        C595   1.355       .  A
C595        C765   1.478       .  S
N596        C597   1.359       .  A
C597        C802   1.440       .  S
C599        C790   1.429       .  S
C599        N600   1.354       .  A
C599        N604   1.356       .  A
N600        C601   1.354       .  A
C601        C758   1.475       .  S
C601        N602   1.362       .  A
N602        C603   1.360       .  A
C603        C751   1.437       .  S
C603        N604   1.357       .  A
C605        C749   1.432       .  S
C605        N606   1.358       .  A
C605        N610   1.355       .  A
N606       C1679   1.358       .  A
C607        C796   1.439       .  S
C607       N1678   1.359       .  A
C607        N608   1.358       .  A
N608       C1681   1.358       .  A
C609        C762   1.473       .  S
C609       N1680   1.358       .  A
C609        N610   1.356       .  A
C611        C803   1.435       .  S
C611        N612   1.359       .  A
C611        N616   1.358       .  A
N612        C613   1.361       .  A
C613        C774   1.471       .  S
C613        N614   1.351       .  A
N614        C615   1.352       .  A
C615        C747   1.425       .  S
C615        N616   1.356       .  A
C617        C746   1.442       .  S
C617        N618   1.360   1_455  A
C617        N622   1.358       .  A
N618       C1691   1.359       .  A
C619        C791   1.437       .  S
C619       N1690   1.360       .  A
C619        N620   1.357       .  A
N620       C1693   1.356       .  A
C621        C770   1.480       .  S
C621       N1692   1.356       .  A
C621        N622   1.361   1_655  A
Fe623       O639   2.069       .  S
Fe623       O629   2.062       .  S
Fe623       O636   2.066       .  S
Fe623       O628   2.065       .  S
Fe623       O634   1.982       .  S
Fe624       O627   2.056       .  S
Fe624       O631   2.057       .  S
Fe624       O635   2.051       .  S
Fe624       O640   2.062       .  S
Fe624       O634   1.982       .  S
Fe625       O643   2.059       .  S
Fe625       O630   2.053       .  S
Fe625       O637   2.059       .  S
Fe625       O626   2.065       .  S
Fe625       O634   1.982       .  S
O626        C633   1.267       .  A
O627        C641   1.264       .  A
O628        C633   1.268       .  A
O629        C632   1.266       .  A
O630        C642   1.264       .  A
O631        C644   1.266       .  A
C632        O637   1.264       .  A
C632        C750   1.432       .  S
C633        C740   1.433       .  S
O635        C638   1.264       .  A
O636        C638   1.266       .  A
C638        C742   1.430       .  S
O639        C644   1.268       .  A
O640        C642   1.266       .  A
C641        O643   1.267       .  A
C641        C748   1.426       .  S
C642        C743   1.428       .  S
C644        C754   1.432       .  S
Fe645       O661   2.071       .  S
Fe645       O651   2.065       .  S
Fe645       O658   2.064       .  S
Fe645       O650   2.072       .  S
Fe645       O656   1.984       .  S
Fe646       O649   2.063       .  S
Fe646       O653   2.065       .  S
Fe646       O657   2.068       .  S
Fe646       O662   2.066       .  S
Fe646       O656   1.985       .  S
Fe647       O665   2.072       .  S
Fe647       O652   2.073       .  S
Fe647       O659   2.073       .  S
Fe647       O648   2.076       .  S
Fe647       O656   1.985       .  S
O648        C655   1.270       .  A
O649        C663   1.267       .  A
O650        C655   1.269       .  A
O651        C654   1.266       .  A
O652        C664   1.268       .  A
O653        C666   1.266       .  A
C654        O659   1.267       .  A
C654        C736   1.440       .  S
C655        C745   1.442       .  S
O657        C660   1.268       .  A
O658        C660   1.266       .  A
C660        C752   1.436       .  S
O661        C666   1.269       .  A
O662        C664   1.267       .  A
C663        O665   1.269       .  A
C663        C737   1.436       .  S
C664        C755   1.441       .  S
C666        C734   1.437       .  S
C667       C1744   1.420       .  A
C667        C721   1.496       .  S
C668       C1741   1.420       .  A
C668        C718   1.490       .  S
C669       C1740   1.420   1_455  A
C669        C670   1.412   1_565  A
C669        C730   1.492       .  S
C670        C726   1.491   1_545  S
C671        C672   1.417       .  A
C671        C713   1.488       .  S
C672       C1739   1.420   1_455  A
C672        C709   1.495       .  S
C673        C741   1.431       .  S
C673        N674   1.357       .  A
C675        C725   1.475       .  S
C675        N676   1.359   1_545  A
N676        C677   1.356       .  A
C677        C797   1.432       .  S
C677        N678   1.357   1_565  A
C679        C738   1.437       .  S
C679        N684   1.359       .  A
N680        C681   1.356       .  A
C681        C782   1.430       .  S
C681        N682   1.356       .  A
N682        C683   1.357       .  A
C683        C722   1.476       .  S
C685        C739   1.433       .  S
C685        N686   1.357       .  A
C685        N690   1.353       .  A
N686       C1759   1.360       .  A
C687        C793   1.443       .  S
C687       N1758   1.360       .  A
C687        N688   1.364       .  A
N688       C1761   1.364   1_455  A
C689        C710   1.477       .  S
C689       N1760   1.364       .  A
C689        N690   1.353       .  A
C691        C785   1.437       .  S
C691        N692   1.356       .  A
C691        N696   1.360       .  A
N692        C693   1.357       .  A
C693        C714   1.471       .  S
C693        N694   1.355       .  A
N694        C695   1.355       .  A
C695        C733   1.437       .  S
C695        N696   1.360       .  A
C697        C735   1.440       .  S
C697        N698   1.359   1_455  A
C697        N702   1.360       .  A
N698       C1771   1.357       .  A
C699        C788   1.433       .  S
C699       N1770   1.357       .  A
C699        N700   1.355       .  A
N700       C1773   1.354       .  A
C701        C729   1.479       .  S
C701       N1772   1.354       .  A
C701        N702   1.363   1_655  A
C703        C799   1.434       .  S
C703        N704   1.356       .  A
C703        N708   1.359       .  A
N704        C705   1.355       .  A
C705        C744   1.428       .  S
C705        N706   1.355       .  A
N706        C707   1.355       .  A
C707        C717   1.475       .  S
C707        N708   1.361       .  A
C709       C1782   1.340   1_455  D
C709       H1783   1.087       .  S
C710       C1781   1.340       .  D
C710       H1784   1.087       .  S
H711       C1781   1.087       .  S
H712       C1782   1.087       .  S
C713        C714   1.344       .  D
C713        H715   1.086       .  S
C714        H716   1.086       .  S
C717        C718   1.341       .  D
C717        H719   1.086       .  S
C718        H720   1.087       .  S
C721        C722   1.349       .  D
C721        H723   1.086       .  S
C725        C726   1.343   1_545  D
C725        H727   1.085       .  S
C729        C730   1.340   1_655  D
C729       H1803   1.086       .  S
C730        H732   1.087       .  S
H731       C1801   1.086       .  S
C733        C734   1.207       .  T
C735        C736   1.209       .  T
C737        C738   1.207       .  T
C739        C740   1.204       .  T
C741        C742   1.203       .  T
C743        C744   1.202       .  T
C745        C746   1.210       .  T
C747        C748   1.200       .  T
C749        C750   1.204       .  T
C751        C752   1.206       .  T
C753        C754   1.204       .  T
C755        C756   1.209       .  T
C757        C758   1.340       .  D
C757        H759   1.087       .  S
C758        H760   1.086       .  S
C761       C1654   1.492       .  S
C761        C762   1.347       .  D
C761        H763   1.086       .  S
C762       H1836   1.086       .  S
H764       C1834   1.086       .  S
C769        C770   1.342       .  D
C769        H771   1.087   1_655  S
C770       H1844   1.086       .  S
H772       C1842   1.086       .  S
C773        C774   1.335       .  D
C773        H775   1.086       .  S
C774        H776   1.086       .  S
C781        C782   1.202       .  T
C783        C784   1.202       .  T
C785        C786   1.207       .  T
C787        C788   1.204       .  T
C789        C790   1.202       .  T
C791        C792   1.206       .  T
C793        C794   1.210       .  T
C795        C796   1.208       .  T
C797        C798   1.204       .  T
C799        C800   1.205       .  T
C801        C802   1.208       .  T
C803        C804   1.206       .  T
Fe805       O821   2.060       .  S
Fe805       O811   2.065       .  S
Fe806       O817   2.079       .  S
Fe806       O822   2.071       .  S
Fe806       O816   1.982   1_556  S
Fe807       O812   2.068   1_554  S
Fe807       O808   2.067   1_554  S
Fe807       O816   1.981       .  S
O808        C815   1.268       .  A
O809        C823   1.266       .  A
O810        C815   1.268       .  A
O811        C814   1.266       .  A
O812        C824   1.267       .  A
O813        C826   1.267       .  A
C814        O819   1.265       .  A
C814       C1072   1.435       .  S
C815       C1068   1.436       .  S
O817        C820   1.271       .  A
O818        C820   1.266       .  A
C820       C1066   1.439       .  S
O821        C826   1.266       .  A
O822        C824   1.268       .  A
C823        O825   1.269       .  A
C823       C1063   1.430       .  S
C824       C1062   1.440       .  S
C826       C1069   1.436       .  S
Fe827       O843   2.059       .  S
Fe827       O833   2.073       .  S
Fe828       O831   2.052       .  S
Fe828       O835   2.068       .  S
Fe829       O834   2.060       .  S
Fe829       O830   2.054       .  S
Fe829       O838   1.982       .  S
O830        C837   1.266       .  A
O831        C845   1.264       .  A
O832        C837   1.266       .  A
O833        C836   1.269       .  A
O834        C846   1.265       .  A
O835        C848   1.267       .  A
C836        O841   1.266       .  A
C836       C1055   1.430       .  S
C837       C1060   1.427       .  S
O839        C842   1.267       .  A
O840        C842   1.267       .  A
C842       C1052   1.440       .  S
O843        C848   1.266       .  A
O844        C846   1.268       .  A
C845        O847   1.266       .  A
C845       C1054   1.431       .  S
C846       C1057   1.432       .  S
C848       C1049   1.433       .  S
C849       C1386   1.408       .  A
C849        C854   1.416   1_545  A
C849       C1045   1.491       .  S
C850       C1385   1.408       .  A
C850        C851   1.415   1_655  A
C850       C2101   1.488       .  S
C851       C1025   1.486       .  S
C852        C853   1.413   1_445  A
C852       C1034   1.490   1_545  S
C853       C1926   1.420       .  A
C853       C1037   1.490   1_655  S
C854       C1925   1.420       .  A
C854       C1041   1.486       .  S
C855       C1024   1.432       .  S
C855        N856   1.353       .  A
C857       C1046   1.473       .  S
C857        N858   1.361       .  A
N858        C859   1.360       .  A
C859       C1051   1.440       .  S
C859        N860   1.360       .  A
C861       C1021   1.430       .  S
C861        N862   1.355       .  A
C861        N866   1.356       .  A
N862        C863   1.354       .  A
C863       C1033   1.477       .  S
N864        C865   1.358       .  A
C865       C1070   1.436       .  S
C867       C1058   1.432       .  S
C867        N868   1.353       .  A
C867        N872   1.358       .  A
N868        C869   1.352       .  A
C869       C1026   1.472       .  S
C869        N870   1.361       .  A
N870        C871   1.360       .  A
C871       C1019   1.441       .  S
C871        N872   1.360       .  A
C873       C1017   1.434       .  S
C873        N874   1.358       .  A
C873        N878   1.357       .  A
N874       C1947   1.358       .  A
C875       C1064   1.429       .  S
C875       N1946   1.358       .  A
C875        N876   1.354       .  A
N876       C1949   1.353       .  A
C877       C1030   1.470       .  S
C877       N1948   1.353       .  A
C877        N878   1.359       .  A
C879       C1071   1.436       .  S
C879        N880   1.357       .  A
C879        N884   1.359       .  A
N880        C881   1.359       .  A
C881       C1042   1.472       .  S
C881        N882   1.355       .  A
N882        C883   1.355       .  A
C883       C1015   1.433       .  S
C883        N884   1.358       .  A
C885       C1014   1.434       .  S
C885        N886   1.356   1_455  A
C885        N890   1.357       .  A
N886       C1959   1.356       .  A
C887       C1059   1.428       .  S
C887       N1958   1.355       .  A
C887        N888   1.356       .  A
N888       C1961   1.355       .  A
C889       C1038   1.477       .  S
C889       N1960   1.355       .  A
C889        N890   1.361   1_655  A
Fe891       O907   2.069       .  S
Fe891       O897   2.062       .  S
Fe891       O904   2.067       .  S
Fe891       O896   2.065       .  S
Fe891       O902   1.980       .  S
Fe892       O895   2.073       .  S
Fe892       O899   2.054       .  S
Fe892       O903   2.070       .  S
Fe892       O908   2.060       .  S
Fe892       O902   1.978       .  S
Fe893       O911   2.055       .  S
Fe893       O898   2.061       .  S
Fe893       O905   2.065       .  S
Fe893       O894   2.056       .  S
Fe893       O902   1.980       .  S
O894        C901   1.265       .  A
O895        C909   1.268       .  A
O896        C901   1.268       .  A
O897        C900   1.266       .  A
O898        C910   1.266       .  A
O899        C912   1.266       .  A
C900        O905   1.266       .  A
C900       C1018   1.434       .  S
C901       C1008   1.429       .  S
O903        C906   1.268       .  A
O904        C906   1.266       .  A
C906       C1010   1.439       .  S
O907        C912   1.268       .  A
O908        C910   1.266       .  A
C909        O911   1.265       .  A
C909       C1016   1.433       .  S
C910       C1011   1.429       .  S
C912       C1022   1.429       .  S
Fe913       O929   2.062       .  S
Fe913       O919   2.071       .  S
Fe913       O926   2.073       .  S
Fe913       O918   2.061       .  S
Fe913       O924   1.983       .  S
Fe914       O917   2.063       .  S
Fe914       O921   2.069       .  S
Fe914       O925   2.063       .  S
Fe914       O930   2.068       .  S
Fe914       O924   1.982       .  S
Fe915       O933   2.075       .  S
Fe915       O920   2.059       .  S
Fe915       O927   2.060       .  S
Fe915       O916   2.070       .  S
Fe915       O924   1.985       .  S
O916        C923   1.269       .  A
O917        C931   1.266       .  A
O918        C923   1.267       .  A
O919        C922   1.267       .  A
O920        C932   1.265       .  A
O921        C934   1.269       .  A
C922        O927   1.265       .  A
C922       C1004   1.436       .  S
C923       C1013   1.434       .  S
O925        C928   1.265       .  A
O926        C928   1.267       .  A
C928       C1020   1.440       .  S
O929        C934   1.268       .  A
O930        C932   1.269       .  A
C931        O933   1.269       .  A
C931       C1005   1.440       .  S
C932       C1023   1.432       .  S
C934       C1002   1.432       .  S
C935       C2012   1.420       .  A
C935        C989   1.498       .  S
C936       C2009   1.421       .  A
C936        C986   1.488       .  S
C937       C2008   1.421   1_455  A
C937        C938   1.412       .  A
C937        C998   1.493       .  S
C938        C994   1.491       .  S
C939        C940   1.417       .  A
C939        C981   1.490       .  S
C940       C2007   1.420   1_455  A
C940        C977   1.492       .  S
C941       C1009   1.438       .  S
C941        N942   1.357       .  A
C943        C993   1.476       .  S
C943        N944   1.359   1_545  A
N944        C945   1.356       .  A
C945       C1065   1.439       .  S
C945        N946   1.361   1_565  A
C947       C1006   1.440       .  S
C947        N952   1.360       .  A
N948        C949   1.357       .  A
C949       C1050   1.433       .  S
C949        N950   1.357       .  A
N950        C951   1.358       .  A
C951        C990   1.478       .  S
C953       C1007   1.428       .  S
C953        N954   1.356       .  A
C953        N958   1.351       .  A
N954       C2027   1.358       .  A
C955       C1061   1.441       .  S
C955       N2026   1.359       .  A
C955        N956   1.363       .  A
N956       C2029   1.364   1_455  A
C957        C978   1.475       .  S
C957       N2028   1.364       .  A
C957        N958   1.352       .  A
C959       C1053   1.432       .  S
C959        N960   1.357       .  A
C959        N964   1.357       .  A
N960        C961   1.358       .  A
C961        C982   1.472       .  S
C961        N962   1.356       .  A
N962        C963   1.356       .  A
C963       C1001   1.433       .  S
C963        N964   1.357       .  A
C965       C1003   1.436       .  S
C965        N966   1.357   1_455  A
C965        N970   1.360       .  A
N966       C2039   1.355       .  A
C967       C1056   1.431       .  S
C967       N2038   1.355       .  A
C967        N968   1.356       .  A
N968       C2041   1.355       .  A
C969        C997   1.479       .  S
C969       N2040   1.355       .  A
C969        N970   1.362   1_655  A
C971       C1067   1.436       .  S
C971        N972   1.357       .  A
C971        N976   1.359       .  A
N972        C973   1.356       .  A
C973       C1012   1.430       .  S
C973        N974   1.355       .  A
N974        C975   1.354       .  A
C975        C985   1.474       .  S
C975        N976   1.361       .  A
C977       C2050   1.339   1_455  D
C977       H2051   1.087       .  S
C978       C2049   1.339       .  D
C978       H2052   1.087       .  S
H979       C2049   1.087       .  S
H980       C2050   1.087       .  S
C981        C982   1.345       .  D
C981        H983   1.086       .  S
C982        H984   1.086       .  S
C985        C986   1.340       .  D
C985        H987   1.086       .  S
C986        H988   1.087       .  S
C989        C990   1.350       .  D
C989        H991   1.086       .  S
C993        C994   1.343   1_545  D
C993        H995   1.085       .  S
C997        C998   1.341   1_655  D
C997       H2071   1.086       .  S
C998       H1000   1.087       .  S
H999       C2069   1.086       .  S
C1001      C1002   1.204       .  T
C1003      C1004   1.206       .  T
C1005      C1006   1.209       .  T
C1007      C1008   1.202       .  T
C1009      C1010   1.208       .  T
C1011      C1012   1.202       .  T
C1013      C1014   1.205       .  T
C1015      C1016   1.205       .  T
C1017      C1018   1.205       .  T
C1019      C1020   1.209       .  T
C1021      C1022   1.202       .  T
C1023      C1024   1.204       .  T
C1025      C1026   1.339       .  D
C1025      H1027   1.087       .  S
C1026      H1028   1.087       .  S
C1029      C1922   1.488       .  S
C1029      C1030   1.340       .  D
C1029      H1031   1.087       .  S
C1030      H2104   1.086       .  S
H1032      C2102   1.086       .  S
C1037      C1038   1.341   1_455  D
C1037      H1039   1.087       .  S
C1038      H2112   1.086       .  S
H1040      C2110   1.086       .  S
C1041      C1042   1.341       .  D
C1041      H1043   1.087       .  S
C1042      H1044   1.086       .  S
C1049      C1050   1.205       .  T
C1051      C1052   1.209       .  T
C1053      C1054   1.203       .  T
C1055      C1056   1.203       .  T
C1057      C1058   1.204       .  T
C1059      C1060   1.201       .  T
C1061      C1062   1.209       .  T
C1063      C1064   1.202       .  T
C1065      C1066   1.208       .  T
C1067      C1068   1.206       .  T
C1069      C1070   1.206       .  T
C1071      C1072   1.206       .  T
Fe1073     O1089   2.066       .  S
Fe1073     O1079   2.062       .  S
Fe1073     O1354   2.060   1_554  S
Fe1073     O1346   2.068   1_554  S
Fe1073     O1352   1.984       .  S
Fe1074     O1345   2.058       .  S
Fe1074     O1349   2.070       .  S
Fe1074     O1085   2.063       .  S
Fe1074     O1090   2.073       .  S
Fe1074     O1084   1.984       .  S
Fe1075     O1361   2.066       .  S
Fe1075     O1080   2.069       .  S
Fe1075     O1355   2.063       .  S
Fe1075     O1076   2.071       .  S
Fe1075     O1084   1.982       .  S
O1076      C1083   1.270       .  A
O1077     Fe1342   2.076   1_554  S
O1077      C1091   1.270       .  A
O1078     Fe1341   2.061       .  S
O1078      C1083   1.267       .  A
O1079      C1082   1.266       .  A
O1080      C1092   1.267       .  A
O1081     Fe1342   2.071   1_554  S
O1081      C1094   1.268       .  A
C1082      O1087   1.266       .  A
C1082      C1340   1.435       .  S
C1083      C1336   1.435       .  S
O1084     Fe1341   1.984       .  S
O1085      C1088   1.267       .  A
O1086     Fe1341   2.064       .  S
O1086      C1088   1.267       .  A
O1087     Fe1343   2.066       .  S
C1088      C1334   1.432       .  S
O1089      C1094   1.266       .  A
O1090      C1092   1.268       .  A
C1091      O1093   1.269       .  A
C1091      C1331   1.438       .  S
C1092      C1330   1.442       .  S
O1093     Fe1343   2.065       .  S
C1094      C1337   1.439       .  S
Fe1095     O1111   2.055       .  S
Fe1095     O1101   2.069       .  S
Fe1095     O1376   2.067       .  S
Fe1095     O1368   2.061       .  S
Fe1095     O1374   1.985       .  S
Fe1096     O1099   2.069       .  S
Fe1096     O1103   2.067       .  S
Fe1096     O1375   2.070       .  S
Fe1096     O1380   2.065       .  S
Fe1096     O1374   1.981       .  S
Fe1097     O1383   2.068       .  S
Fe1097     O1102   2.059   1_556  S
Fe1097     O1377   2.051       .  S
Fe1097     O1098   2.064   1_556  S
Fe1097     O1106   1.979       .  S
O1098      C1105   1.266       .  A
O1099      C1113   1.267       .  A
O1100     Fe1363   2.065   1_554  S
O1100      C1105   1.266       .  A
O1101      C1104   1.267       .  A
O1102      C1114   1.266       .  A
O1103      C1116   1.268       .  A
C1104      O1109   1.265       .  A
C1104      C1323   1.433       .  S
C1105      C1328   1.436       .  S
O1106     Fe1363   1.981       .  S
O1106     Fe1364   1.982       .  S
O1107     Fe1364   2.054   1_554  S
O1107      C1110   1.264       .  A
O1108     Fe1363   2.068   1_554  S
O1108      C1110   1.269       .  A
O1109     Fe1365   2.056       .  S
C1110      C1320   1.430       .  S
O1111      C1116   1.266       .  A
O1112     Fe1364   2.063   1_554  S
O1112      C1114   1.267       .  A
C1113      O1115   1.265       .  A
C1113      C1322   1.437       .  S
C1114      C1325   1.430       .  S
O1115     Fe1365   2.062       .  S
C1116      C1317   1.429       .  S
C1117      C1122   1.410       .  A
C1117      C1313   1.492       .  S
C1118      C1119   1.420       .  A
C1119      C1656   1.422   1_545  A
C1119      C1293   1.489       .  S
C1120      C1655   1.422       .  A
C1120      C1121   1.414       .  A
C1120      C1302   1.491       .  S
C1121      C1305   1.493       .  S
C1122      C1309   1.483       .  S
C1123      C1292   1.442       .  S
C1123      N1124   1.363       .  A
C1123      N1664   1.359       .  A
N1124      C1661   1.364       .  A
C1125      C1314   1.475       .  S
C1125      N1660   1.363   1_545  A
C1125      N1126   1.351       .  A
N1126      C1127   1.351       .  A
C1127      C1319   1.429       .  S
C1127      N1128   1.358   1_545  A
N1128      C1659   1.360       .  A
C1129      C1289   1.432       .  S
C1129      N1130   1.356       .  A
C1129      N1134   1.357       .  A
N1130      C1131   1.355       .  A
C1131      C1301   1.478       .  S
C1131      N1668   1.362   1_545  A
N1132      C1667   1.362       .  A
N1132      C1133   1.359       .  A
C1133      C1338   1.439       .  S
C1133      N1670   1.359       .  A
N1134      C1669   1.358   1_545  A
C1135      C1326   1.430       .  S
C1135      N1136   1.354       .  A
C1135      N1140   1.356       .  A
N1136      C1137   1.354       .  A
C1137      C1294   1.475       .  S
C1137      N1138   1.362       .  A
N1138      C1139   1.360       .  A
C1139      C1287   1.437       .  S
C1139      N1140   1.357       .  A
C1141      C1285   1.432       .  S
C1141      N1142   1.358   1_655  A
C1141      N1146   1.355       .  A
C1143      C1332   1.438       .  S
C1143      N1144   1.358       .  A
C1145      C1298   1.474       .  S
C1145      N1146   1.356   1_455  A
C1147      C1339   1.435       .  S
C1147      N1148   1.358       .  A
C1147      N1152   1.358       .  A
N1148      C1149   1.361       .  A
C1149      C1310   1.471       .  S
C1149      N1150   1.351       .  A
N1150      C1151   1.352       .  A
C1151      C1283   1.426       .  S
C1151      N1152   1.357       .  A
C1153      C1282   1.442       .  S
C1153      N1154   1.360       .  A
C1153      N1158   1.358       .  A
C1155      C1327   1.436       .  S
C1155      N1156   1.357       .  A
C1157      C1306   1.480       .  S
C1157      N1158   1.361       .  A
Fe1159     O1175   2.068       .  S
Fe1159     O1165   2.062       .  S
Fe1159     O1172   2.066       .  S
Fe1159     O1164   2.064       .  S
Fe1159     O1170   1.982       .  S
Fe1160     O1163   2.055       .  S
Fe1160     O1167   2.057       .  S
Fe1160     O1171   2.050       .  S
Fe1160     O1176   2.063       .  S
Fe1160     O1170   1.982       .  S
Fe1161     O1179   2.061       .  S
Fe1161     O1166   2.052       .  S
Fe1161     O1173   2.058       .  S
Fe1161     O1162   2.066       .  S
Fe1161     O1170   1.982       .  S
O1162      C1169   1.267       .  A
O1163      C1177   1.264       .  A
O1164      C1169   1.268       .  A
O1165      C1168   1.266       .  A
O1166      C1178   1.264       .  A
O1167      C1180   1.266       .  A
C1168      O1173   1.264       .  A
C1168      C1286   1.432       .  S
C1169      C1276   1.434       .  S
O1171      C1174   1.264       .  A
O1172      C1174   1.266       .  A
C1174      C1278   1.429       .  S
O1175      C1180   1.268       .  A
O1176      C1178   1.265       .  A
C1177      O1179   1.267       .  A
C1177      C1284   1.427       .  S
C1178      C1279   1.428       .  S
C1180      C1290   1.432       .  S
Fe1181     O1197   2.071       .  S
Fe1181     O1187   2.065       .  S
Fe1181     O1194   2.064       .  S
Fe1181     O1186   2.073       .  S
Fe1181     O1192   1.984       .  S
Fe1182     O1185   2.064       .  S
Fe1182     O1189   2.065       .  S
Fe1182     O1193   2.069       .  S
Fe1182     O1198   2.067       .  S
Fe1182     O1192   1.985       .  S
Fe1183     O1201   2.072       .  S
Fe1183     O1188   2.073       .  S
Fe1183     O1195   2.073       .  S
Fe1183     O1184   2.075       .  S
Fe1183     O1192   1.985       .  S
O1184      C1191   1.270       .  A
O1185      C1199   1.267       .  A
O1186      C1191   1.269       .  A
O1187      C1190   1.266       .  A
O1188      C1200   1.268       .  A
O1189      C1202   1.266       .  A
C1190      O1195   1.267       .  A
C1190      C1272   1.440       .  S
C1191      C1281   1.442       .  S
O1193      C1196   1.268       .  A
O1194      C1196   1.267       .  A
C1196      C1288   1.437       .  S
O1197      C1202   1.269       .  A
O1198      C1200   1.267       .  A
C1199      O1201   1.269       .  A
C1199      C1273   1.437       .  S
C1200      C1291   1.441       .  S
C1202      C1270   1.437       .  S
C1203      C1740   1.421   1_545  A
C1203      C1257   1.496       .  S
C1204      C1739   1.421       .  A
C1204      C1254   1.490       .  S
C1205      C1206   1.412       .  A
C1205      C1266   1.492       .  S
C1206      C1743   1.414       .  A
C1206      C1262   1.491       .  S
C1207      C1742   1.414       .  A
C1207      C1208   1.417       .  A
C1207      C1249   1.489       .  S
C1208      C1245   1.494       .  S
C1209      C1277   1.430       .  S
C1209      N1210   1.357       .  A
C1209      N1750   1.356       .  A
N1210      C1747   1.356       .  A
C1211      C1261   1.475       .  S
C1211      N1746   1.356       .  A
C1211      N1212   1.359       .  A
N1212      C1213   1.356       .  A
C1213      C1333   1.433       .  S
C1213      N1214   1.357       .  A
N1214      C1745   1.357       .  A
C1215      C1274   1.437       .  S
C1215      N1752   1.356       .  A
C1215      N1220   1.359       .  A
N1216      C1751   1.356       .  A
N1216      C1217   1.356   1_565  A
C1217      C1318   1.430       .  S
C1217      N1218   1.356       .  A
N1218      C1219   1.357   1_545  A
C1219      C1258   1.476       .  S
C1219      N1756   1.360       .  A
N1220      C1755   1.360       .  A
C1221      C1275   1.433       .  S
C1221      N1222   1.357   1_655  A
C1221      N1226   1.353       .  A
C1223      C1329   1.443       .  S
C1223      N1224   1.363       .  A
C1225      C1246   1.477       .  S
C1225      N1226   1.353       .  A
C1227      C1321   1.437       .  S
C1227      N1228   1.357       .  A
C1227      N1232   1.360       .  A
N1228      C1229   1.358       .  A
C1229      C1250   1.472       .  S
C1229      N1230   1.356       .  A
N1230      C1231   1.355       .  A
C1231      C1269   1.437       .  S
C1231      N1232   1.360       .  A
C1233      C1271   1.440       .  S
C1233      N1234   1.359       .  A
C1233      N1238   1.360       .  A
C1235      C1324   1.433       .  S
C1235      N1236   1.355       .  A
C1237      C1265   1.478       .  S
C1237      N1238   1.363       .  A
C1239      C1335   1.435       .  S
C1239      N1240   1.356       .  A
C1239      N1244   1.359       .  A
N1240      C1241   1.355       .  A
C1241      C1280   1.429       .  S
C1241      N1242   1.355       .  A
N1242      C1243   1.355       .  A
C1243      C1253   1.475       .  S
C1243      N1244   1.362       .  A
C1249      C1250   1.344       .  D
C1249      H1251   1.086       .  S
C1250      H1252   1.086       .  S
C1253      C1254   1.341       .  D
C1253      H1255   1.086       .  S
C1254      H1256   1.087       .  S
C1257      C1258   1.349   1_545  D
C1257      H1259   1.086       .  S
C1258      H1796   1.086       .  S
H1260      C1794   1.086       .  S
C1261      C1262   1.342       .  D
C1261      H1263   1.085       .  S
C1262      H1800   1.086       .  S
H1264      C1798   1.086       .  S
C1265      C1266   1.340       .  D
C1266      H1268   1.087       .  S
C1269      C1270   1.207       .  T
C1271      C1272   1.209       .  T
C1273      C1274   1.207       .  T
C1275      C1276   1.205       .  T
C1277      C1278   1.202       .  T
C1279      C1280   1.202       .  T
C1281      C1282   1.210       .  T
C1283      C1284   1.200       .  T
C1285      C1286   1.204       .  T
C1287      C1288   1.207       .  T
C1289      C1290   1.204       .  T
C1291      C1292   1.209       .  T
C1293      C1294   1.340       .  D
C1293      H1295   1.087       .  S
C1294      H1296   1.087       .  S
C1297      C1298   1.347   1_655  D
C1297      H1299   1.086       .  S
C1301      C1838   1.340   1_545  D
C1301      H1839   1.086       .  S
C1302      C1837   1.340       .  D
C1302      H1840   1.087       .  S
H1303      C1837   1.086       .  S
H1304      C1838   1.087       .  S
C1305      C1306   1.342       .  D
C1305      H1307   1.087       .  S
C1309      C1310   1.335       .  D
C1309      H1311   1.086       .  S
C1310      H1312   1.086       .  S
C1313      C1850   1.337       .  D
C1313      H1851   1.086       .  S
C1314      C1849   1.337   1_545  D
C1314      H1852   1.086       .  S
H1315      C1849   1.087       .  S
H1316      C1850   1.086       .  S
C1317      C1318   1.202       .  T
C1319      C1320   1.203       .  T
C1321      C1322   1.207       .  T
C1323      C1324   1.204       .  T
C1325      C1326   1.202       .  T
C1327      C1328   1.206       .  T
C1329      C1330   1.210       .  T
C1331      C1332   1.208       .  T
C1333      C1334   1.204       .  T
C1335      C1336   1.206       .  T
C1337      C1338   1.208       .  T
C1339      C1340   1.206       .  T
Fe1341     O1357   2.060       .  S
Fe1341     O1347   2.064       .  S
Fe1342     O1353   2.079       .  S
Fe1342     O1358   2.071       .  S
Fe1342     O1352   1.982   1_556  S
Fe1343     O1348   2.067   1_554  S
Fe1343     O1344   2.066   1_554  S
Fe1343     O1352   1.981       .  S
O1344      C1351   1.268       .  A
O1345      C1359   1.266       .  A
O1346      C1351   1.268       .  A
O1347      C1350   1.266       .  A
O1348      C1360   1.266       .  A
O1349      C1362   1.267       .  A
C1350      O1355   1.265       .  A
C1350      C1608   1.435       .  S
C1351      C1604   1.435       .  S
O1353      C1356   1.271       .  A
O1354      C1356   1.266       .  A
C1356      C1602   1.438       .  S
O1357      C1362   1.266       .  A
O1358      C1360   1.268       .  A
C1359      O1361   1.269       .  A
C1359      C1599   1.430       .  S
C1360      C1598   1.440       .  S
C1362      C1605   1.436       .  S
Fe1363     O1379   2.059       .  S
Fe1363     O1369   2.073       .  S
Fe1364     O1367   2.053       .  S
Fe1364     O1371   2.067       .  S
Fe1365     O1370   2.062       .  S
Fe1365     O1366   2.054       .  S
Fe1365     O1374   1.982       .  S
O1366      C1373   1.266       .  A
O1367      C1381   1.264       .  A
O1368      C1373   1.266       .  A
O1369      C1372   1.269       .  A
O1370      C1382   1.266       .  A
O1371      C1384   1.267       .  A
C1372      O1377   1.266       .  A
C1372      C1591   1.429       .  S
C1373      C1596   1.427       .  S
O1375      C1378   1.267       .  A
O1376      C1378   1.266       .  A
C1378      C1588   1.440       .  S
O1379      C1384   1.266       .  A
O1380      C1382   1.268       .  A
C1381      O1383   1.266       .  A
C1381      C1590   1.431       .  S
C1382      C1593   1.433       .  S
C1384      C1585   1.433       .  S
C1385      C1390   1.416       .  A
C1385      C1581   1.491       .  S
C1386      C1387   1.415       .  A
C1387      C1924   1.418       .  A
C1387      C1561   1.486       .  S
C1388      C1923   1.418       .  A
C1388      C1389   1.413       .  A
C1388      C1570   1.490       .  S
C1389      C1573   1.491       .  S
C1390      C1577   1.486       .  S
C1391      C1560   1.432       .  S
C1391      N1392   1.353       .  A
C1391      N1932   1.359       .  A
N1392      C1929   1.352       .  A
C1393      C1582   1.473       .  S
C1393      N1928   1.352       .  A
C1393      N1394   1.361   1_565  A
N1394      C1395   1.360       .  A
C1395      C1587   1.440       .  S
C1395      N1396   1.360   1_545  A
N1396      C1927   1.359       .  A
C1397      C1557   1.430       .  S
C1397      N1398   1.356       .  A
C1397      N1402   1.357       .  A
N1398      C1399   1.355       .  A
C1399      C1569   1.477       .  S
C1399      N1936   1.361   1_545  A
N1400      C1935   1.361       .  A
N1400      C1401   1.358       .  A
C1401      C1606   1.436       .  S
C1401      N1938   1.357       .  A
N1402      C1937   1.357   1_545  A
C1403      C1594   1.432       .  S
C1403      N1404   1.353       .  A
C1403      N1408   1.358       .  A
N1404      C1405   1.353       .  A
C1405      C1562   1.473       .  S
C1405      N1406   1.362       .  A
N1406      C1407   1.360       .  A
C1407      C1555   1.441       .  S
C1407      N1408   1.360       .  A
C1409      C1553   1.434       .  S
C1409      N1410   1.359   1_655  A
C1409      N1414   1.357       .  A
C1411      C1600   1.429       .  S
C1411      N1412   1.353       .  A
C1413      C1566   1.470       .  S
C1413      N1414   1.358   1_455  A
C1415      C1607   1.435       .  S
C1415      N1416   1.357       .  A
C1415      N1420   1.359       .  A
N1416      C1417   1.359       .  A
C1417      C1578   1.472       .  S
C1417      N1418   1.355       .  A
N1418      C1419   1.355       .  A
C1419      C1551   1.433       .  S
C1419      N1420   1.358       .  A
C1421      C1550   1.434       .  S
C1421      N1422   1.356       .  A
C1421      N1426   1.357       .  A
C1423      C1595   1.428       .  S
C1423      N1424   1.356       .  A
C1425      C1574   1.477       .  S
C1425      N1426   1.361       .  A
Fe1427     O1443   2.070       .  S
Fe1427     O1433   2.062       .  S
Fe1427     O1440   2.067       .  S
Fe1427     O1432   2.065       .  S
Fe1427     O1438   1.980       .  S
Fe1428     O1431   2.074       .  S
Fe1428     O1435   2.054       .  S
Fe1428     O1439   2.069       .  S
Fe1428     O1444   2.059       .  S
Fe1428     O1438   1.978       .  S
Fe1429     O1447   2.054       .  S
Fe1429     O1434   2.061       .  S
Fe1429     O1441   2.065       .  S
Fe1429     O1430   2.056       .  S
Fe1429     O1438   1.979       .  S
O1430      C1437   1.265       .  A
O1431      C1445   1.268       .  A
O1432      C1437   1.268       .  A
O1433      C1436   1.266       .  A
O1434      C1446   1.266       .  A
O1435      C1448   1.267       .  A
C1436      O1441   1.266       .  A
C1436      C1554   1.434       .  S
C1437      C1544   1.429       .  S
O1439      C1442   1.267       .  A
O1440      C1442   1.266       .  A
C1442      C1546   1.439       .  S
O1443      C1448   1.268       .  A
O1444      C1446   1.265       .  A
C1445      O1447   1.266       .  A
C1445      C1552   1.433       .  S
C1446      C1547   1.429       .  S
C1448      C1558   1.430       .  S
Fe1449     O1465   2.062       .  S
Fe1449     O1455   2.070       .  S
Fe1449     O1462   2.072       .  S
Fe1449     O1454   2.062       .  S
Fe1449     O1460   1.983       .  S
Fe1450     O1453   2.064       .  S
Fe1450     O1457   2.069       .  S
Fe1450     O1461   2.064       .  S
Fe1450     O1466   2.068       .  S
Fe1450     O1460   1.982       .  S
Fe1451     O1469   2.075       .  S
Fe1451     O1456   2.060       .  S
Fe1451     O1463   2.061       .  S
Fe1451     O1452   2.070       .  S
Fe1451     O1460   1.986       .  S
O1452      C1459   1.269       .  A
O1453      C1467   1.266       .  A
O1454      C1459   1.267       .  A
O1455      C1458   1.267       .  A
O1456      C1468   1.266       .  A
O1457      C1470   1.269       .  A
C1458      O1463   1.265       .  A
C1458      C1540   1.436       .  S
C1459      C1549   1.434       .  S
O1461      C1464   1.265       .  A
O1462      C1464   1.267       .  A
C1464      C1556   1.440       .  S
O1465      C1470   1.268       .  A
O1466      C1468   1.269       .  A
C1467      O1469   1.269       .  A
C1467      C1541   1.440       .  S
C1468      C1559   1.433       .  S
C1470      C1538   1.433       .  S
C1471      C2008   1.421   1_545  A
C1471      C1525   1.498       .  S
C1472      C2007   1.421       .  A
C1472      C1522   1.487       .  S
C1473      C1474   1.412       .  A
C1473      C1534   1.493       .  S
C1474      C2011   1.414       .  A
C1474      C1530   1.491       .  S
C1475      C2010   1.414   1_545  A
C1475      C1476   1.417       .  A
C1475      C1517   1.489       .  S
C1476      C1513   1.492       .  S
C1477      C1545   1.438       .  S
C1477      N1478   1.357       .  A
C1477      N2018   1.361       .  A
N1478      C2015   1.356       .  A
C1479      C1529   1.476       .  S
C1479      N2014   1.356       .  A
C1479      N1480   1.358       .  A
N1480      C1481   1.356       .  A
C1481      C1601   1.438       .  S
C1481      N1482   1.361       .  A
N1482      C2013   1.361       .  A
C1483      C1542   1.441       .  S
C1483      N2020   1.357       .  A
C1483      N1488   1.360       .  A
N1484      C2019   1.357       .  A
N1484      C1485   1.357   1_565  A
C1485      C1586   1.433       .  S
C1485      N1486   1.357       .  A
N1486      C1487   1.358   1_545  A
C1487      C1526   1.478       .  S
C1487      N2024   1.361       .  A
N1488      C2023   1.361       .  A
C1489      C1543   1.428       .  S
C1489      N1490   1.356   1_655  A
C1489      N1494   1.352       .  A
C1491      C1597   1.441       .  S
C1491      N1492   1.363       .  A
C1493      C1514   1.475       .  S
C1493      N1494   1.353       .  A
C1495      C1589   1.432       .  S
C1495      N1496   1.357       .  A
C1495      N1500   1.357       .  A
N1496      C1497   1.358       .  A
C1497      C1518   1.472       .  S
C1497      N1498   1.357       .  A
N1498      C1499   1.356       .  A
C1499      C1537   1.433       .  S
C1499      N1500   1.357       .  A
C1501      C1539   1.436       .  S
C1501      N1502   1.357       .  A
C1501      N1506   1.359       .  A
C1503      C1592   1.430       .  S
C1503      N1504   1.356       .  A
C1505      C1533   1.479       .  S
C1505      N1506   1.362       .  A
C1507      C1603   1.436       .  S
C1507      N1508   1.357       .  A
C1507      N1512   1.359       .  A
N1508      C1509   1.356       .  A
C1509      C1548   1.429       .  S
C1509      N1510   1.355       .  A
N1510      C1511   1.354       .  A
C1511      C1521   1.473       .  S
C1511      N1512   1.361       .  A
C1517      C1518   1.345       .  D
C1517      H1519   1.086       .  S
C1518      H1520   1.086       .  S
C1521      C1522   1.340       .  D
C1521      H1523   1.086       .  S
C1522      H1524   1.087       .  S
C1525      C1526   1.350   1_545  D
C1525      H1527   1.086       .  S
C1526      H2064   1.086       .  S
H1528      C2062   1.086       .  S
C1529      C1530   1.343       .  D
C1529      H1531   1.086       .  S
C1530      H2068   1.086       .  S
H1532      C2066   1.086       .  S
C1533      C1534   1.341       .  D
C1534      H1536   1.087       .  S
C1537      C1538   1.204       .  T
C1539      C1540   1.206       .  T
C1541      C1542   1.209       .  T
C1543      C1544   1.202       .  T
C1545      C1546   1.208       .  T
C1547      C1548   1.202       .  T
C1549      C1550   1.205       .  T
C1551      C1552   1.205       .  T
C1553      C1554   1.205       .  T
C1555      C1556   1.209       .  T
C1557      C1558   1.203       .  T
C1559      C1560   1.204       .  T
C1561      C1562   1.339       .  D
C1561      H1563   1.087       .  S
C1562      H1564   1.087       .  S
C1565      C1566   1.340   1_655  D
C1565      H1567   1.087       .  S
C1569      C2106   1.340   1_545  D
C1569      H2107   1.086       .  S
C1570      C2105   1.340       .  D
C1570      H2108   1.087       .  S
H1571      C2105   1.086       .  S
H1572      C2106   1.087       .  S
C1573      C1574   1.341       .  D
C1573      H1575   1.087       .  S
C1577      C1578   1.341       .  D
C1577      H1579   1.087       .  S
C1578      H1580   1.086       .  S
C1581      C2118   1.339       .  D
C1581      H2119   1.086       .  S
C1582      C2117   1.339   1_565  D
C1582      H2120   1.086       .  S
H1583      C2117   1.086       .  S
H1584      C2118   1.086       .  S
C1585      C1586   1.204       .  T
C1587      C1588   1.209       .  T
C1589      C1590   1.204       .  T
C1591      C1592   1.203       .  T
C1593      C1594   1.204       .  T
C1595      C1596   1.201       .  T
C1597      C1598   1.209       .  T
C1599      C1600   1.202       .  T
C1601      C1602   1.208       .  T
C1603      C1604   1.206       .  T
C1605      C1606   1.206       .  T
C1607      C1608   1.206       .  T
Fe1609     O1625   2.066       .  S
Fe1609     O1615   2.061       .  S
Fe1609     O1890   2.059   1_554  S
Fe1609     O1882   2.068   1_554  S
Fe1609     O1888   1.985       .  S
Fe1610     O1881   2.059       .  S
Fe1610     O1885   2.070       .  S
Fe1610     O1621   2.063       .  S
Fe1610     O1626   2.074       .  S
Fe1610     O1620   1.984       .  S
Fe1611     O1897   2.067       .  S
Fe1611     O1616   2.066       .  S
Fe1611     O1891   2.061       .  S
Fe1611     O1612   2.071       .  S
Fe1611     O1620   1.982       .  S
O1612      C1619   1.269       .  A
O1613     Fe1878   2.075   1_554  S
O1613      C1627   1.270       .  A
O1614     Fe1877   2.061       .  S
O1614      C1619   1.267       .  A
O1615      C1618   1.265       .  A
O1616      C1628   1.266       .  A
O1617     Fe1878   2.071   1_554  S
O1617      C1630   1.268       .  A
C1618      O1623   1.266       .  A
C1618      C1876   1.434       .  S
C1619      C1872   1.434       .  S
O1620     Fe1877   1.984       .  S
O1621      C1624   1.268       .  A
O1622     Fe1877   2.065       .  S
O1622      C1624   1.267       .  A
O1623     Fe1879   2.066       .  S
C1624      C1870   1.432       .  S
O1625      C1630   1.267       .  A
O1626      C1628   1.268       .  A
C1627      O1629   1.269       .  A
C1627      C1867   1.437       .  S
C1628      C1866   1.442       .  S
O1629     Fe1879   2.065       .  S
C1630      C1873   1.438       .  S
Fe1631     O1647   2.057       .  S
Fe1631     O1637   2.068       .  S
Fe1631     O1912   2.067       .  S
Fe1631     O1904   2.063       .  S
Fe1631     O1910   1.985       .  S
Fe1632     O1635   2.068       .  S
Fe1632     O1639   2.065       .  S
Fe1632     O1911   2.070       .  S
Fe1632     O1916   2.064       .  S
Fe1632     O1910   1.981       .  S
Fe1633     O1919   2.069       .  S
Fe1633     O1638   2.057   1_556  S
Fe1633     O1913   2.051       .  S
Fe1633     O1634   2.065   1_556  S
Fe1633     O1642   1.978       .  S
O1634      C1641   1.267       .  A
O1635      C1649   1.267       .  A
O1636     Fe1899   2.064   1_554  S
O1636      C1641   1.266       .  A
O1637      C1640   1.267       .  A
O1638      C1650   1.266       .  A
O1639      C1652   1.268       .  A
C1640      O1645   1.265       .  A
C1640      C1859   1.432       .  S
C1641      C1864   1.435       .  S
O1642     Fe1899   1.979       .  S
O1642     Fe1900   1.980       .  S
O1643     Fe1900   2.054   1_554  S
O1643      C1646   1.264       .  A
O1644     Fe1899   2.068   1_554  S
O1644      C1646   1.269       .  A
O1645     Fe1901   2.055       .  S
C1646      C1856   1.430       .  S
O1647      C1652   1.267       .  A
O1648     Fe1900   2.063   1_554  S
O1648      C1650   1.267       .  A
C1649      O1651   1.265       .  A
C1649      C1858   1.436       .  S
C1650      C1861   1.429       .  S
O1651     Fe1901   2.063       .  S
C1652      C1853   1.429       .  S
C1653      C1658   1.410       .  A
C1653      C1849   1.492       .  S
C1654      C1655   1.420       .  A
C1655      C1829   1.489       .  S
C1656      C1657   1.414       .  A
C1656      C1838   1.492       .  S
C1657      C1841   1.493       .  S
C1658      C1845   1.483       .  S
C1659      C1828   1.442       .  S
C1659      N1660   1.363       .  A
C1661      C1850   1.476       .  S
C1661      N1662   1.351       .  A
N1662      C1663   1.351       .  A
C1663      C1855   1.429       .  S
C1663      N1664   1.357       .  A
C1665      C1825   1.433       .  S
C1665      N1666   1.355       .  A
C1665      N1670   1.357       .  A
N1666      C1667   1.354       .  A
C1667      C1837   1.477       .  S
N1668      C1669   1.359       .  A
C1669      C1874   1.439       .  S
C1671      C1862   1.429       .  S
C1671      N1672   1.354       .  A
C1671      N1676   1.355       .  A
N1672      C1673   1.354       .  A
C1673      C1830   1.475       .  S
C1673      N1674   1.362       .  A
N1674      C1675   1.361       .  A
C1675      C1823   1.437       .  S
C1675      N1676   1.357       .  A
C1677      C1821   1.433       .  S
C1677      N1678   1.359   1_655  A
C1677      N1682   1.356       .  A
C1679      C1868   1.438       .  S
C1679      N1680   1.358       .  A
C1681      C1834   1.474       .  S
C1681      N1682   1.357   1_455  A
C1683      C1875   1.435       .  S
C1683      N1684   1.359       .  A
C1683      N1688   1.357       .  A
N1684      C1685   1.361       .  A
C1685      C1846   1.472       .  S
C1685      N1686   1.351       .  A
N1686      C1687   1.353       .  A
C1687      C1819   1.425       .  S
C1687      N1688   1.356       .  A
C1689      C1818   1.443       .  S
C1689      N1690   1.360       .  A
C1689      N1694   1.359       .  A
C1691      C1863   1.436       .  S
C1691      N1692   1.357       .  A
C1693      C1842   1.480       .  S
C1693      N1694   1.361       .  A
Fe1695     O1711   2.068       .  S
Fe1695     O1701   2.064       .  S
Fe1695     O1708   2.068       .  S
Fe1695     O1700   2.064       .  S
Fe1695     O1706   1.982       .  S
Fe1696     O1699   2.054       .  S
Fe1696     O1703   2.059       .  S
Fe1696     O1707   2.051       .  S
Fe1696     O1712   2.063       .  S
Fe1696     O1706   1.983       .  S
Fe1697     O1715   2.058       .  S
Fe1697     O1702   2.053       .  S
Fe1697     O1709   2.060       .  S
Fe1697     O1698   2.064       .  S
Fe1697     O1706   1.982       .  S
O1698      C1705   1.267       .  A
O1699      C1713   1.264       .  A
O1700      C1705   1.268       .  A
O1701      C1704   1.266       .  A
O1702      C1714   1.264       .  A
O1703      C1716   1.267       .  A
C1704      O1709   1.264       .  A
C1704      C1822   1.433       .  S
C1705      C1812   1.433       .  S
O1707      C1710   1.264       .  A
O1708      C1710   1.266       .  A
C1710      C1814   1.430       .  S
O1711      C1716   1.268       .  A
O1712      C1714   1.266       .  A
C1713      O1715   1.267       .  A
C1713      C1820   1.425       .  S
C1714      C1815   1.428       .  S
C1716      C1826   1.432       .  S
Fe1717     O1733   2.070       .  S
Fe1717     O1723   2.063       .  S
Fe1717     O1730   2.063       .  S
Fe1717     O1722   2.073       .  S
Fe1717     O1728   1.985       .  S
Fe1718     O1721   2.063       .  S
Fe1718     O1725   2.066       .  S
Fe1718     O1729   2.069       .  S
Fe1718     O1734   2.068       .  S
Fe1718     O1728   1.986       .  S
Fe1719     O1737   2.073       .  S
Fe1719     O1724   2.073       .  S
Fe1719     O1731   2.073       .  S
Fe1719     O1720   2.077       .  S
Fe1719     O1728   1.985       .  S
O1720      C1727   1.271       .  A
O1721      C1735   1.267       .  A
O1722      C1727   1.269       .  A
O1723      C1726   1.266       .  A
O1724      C1736   1.268       .  A
O1725      C1738   1.267       .  A
C1726      O1731   1.267       .  A
C1726      C1808   1.440       .  S
C1727      C1817   1.443       .  S
O1729      C1732   1.268       .  A
O1730      C1732   1.266       .  A
C1732      C1824   1.436       .  S
O1733      C1738   1.269       .  A
O1734      C1736   1.268       .  A
C1735      O1737   1.269       .  A
C1735      C1809   1.436       .  S
C1736      C1827   1.441       .  S
C1738      C1806   1.437       .  S
C1739      C1793   1.496       .  S
C1740      C1790   1.490       .  S
C1741      C1742   1.412   1_565  A
C1741      C1802   1.491       .  S
C1742      C1798   1.490   1_545  S
C1743      C1744   1.417       .  A
C1743      C1785   1.489       .  S
C1744      C1781   1.494       .  S
C1745      C1813   1.431       .  S
C1745      N1746   1.357       .  A
C1747      C1797   1.475       .  S
C1747      N1748   1.359   1_545  A
N1748      C1749   1.356       .  A
C1749      C1869   1.432       .  S
C1749      N1750   1.356   1_565  A
C1751      C1810   1.437       .  S
C1751      N1756   1.359       .  A
N1752      C1753   1.356       .  A
C1753      C1854   1.430       .  S
C1753      N1754   1.356       .  A
N1754      C1755   1.357       .  A
C1755      C1794   1.476       .  S
C1757      C1811   1.432       .  S
C1757      N1758   1.357   1_655  A
C1757      N1762   1.352       .  A
C1759      C1865   1.443       .  S
C1759      N1760   1.363       .  A
C1761      C1782   1.477       .  S
C1761      N1762   1.353       .  A
C1763      C1857   1.437       .  S
C1763      N1764   1.357       .  A
C1763      N1768   1.360       .  A
N1764      C1765   1.358       .  A
C1765      C1786   1.472       .  S
C1765      N1766   1.356       .  A
N1766      C1767   1.356       .  A
C1767      C1805   1.437       .  S
C1767      N1768   1.360       .  A
C1769      C1807   1.440       .  S
C1769      N1770   1.359       .  A
C1769      N1774   1.360       .  A
C1771      C1860   1.432       .  S
C1771      N1772   1.355       .  A
C1773      C1801   1.478       .  S
C1773      N1774   1.362       .  A
C1775      C1871   1.435       .  S
C1775      N1776   1.356       .  A
C1775      N1780   1.359       .  A
N1776      C1777   1.355       .  A
C1777      C1816   1.429       .  S
C1777      N1778   1.355       .  A
N1778      C1779   1.355       .  A
C1779      C1789   1.475       .  S
C1779      N1780   1.362       .  A
C1785      C1786   1.344       .  D
C1785      H1787   1.086       .  S
C1786      H1788   1.086       .  S
C1789      C1790   1.341       .  D
C1789      H1791   1.086       .  S
C1790      H1792   1.087       .  S
C1793      C1794   1.349       .  D
C1793      H1795   1.086       .  S
C1797      C1798   1.342   1_545  D
C1797      H1799   1.085       .  S
C1801      C1802   1.340       .  D
C1802      H1804   1.087       .  S
C1805      C1806   1.207       .  T
C1807      C1808   1.209       .  T
C1809      C1810   1.207       .  T
C1811      C1812   1.204       .  T
C1813      C1814   1.203       .  T
C1815      C1816   1.202       .  T
C1817      C1818   1.210       .  T
C1819      C1820   1.200       .  T
C1821      C1822   1.205       .  T
C1823      C1824   1.207       .  T
C1825      C1826   1.204       .  T
C1827      C1828   1.210       .  T
C1829      C1830   1.340       .  D
C1829      H1831   1.087       .  S
C1830      H1832   1.087       .  S
C1833      C1834   1.347   1_655  D
C1833      H1835   1.086       .  S
C1841      C1842   1.342       .  D
C1841      H1843   1.087       .  S
C1845      C1846   1.335       .  D
C1845      H1847   1.086       .  S
C1846      H1848   1.086       .  S
C1853      C1854   1.202       .  T
C1855      C1856   1.202       .  T
C1857      C1858   1.207       .  T
C1859      C1860   1.204       .  T
C1861      C1862   1.202       .  T
C1863      C1864   1.206       .  T
C1865      C1866   1.210       .  T
C1867      C1868   1.207       .  T
C1869      C1870   1.204       .  T
C1871      C1872   1.205       .  T
C1873      C1874   1.208       .  T
C1875      C1876   1.205       .  T
Fe1877     O1893   2.060       .  S
Fe1877     O1883   2.065       .  S
Fe1878     O1889   2.078       .  S
Fe1878     O1894   2.071       .  S
Fe1878     O1888   1.983   1_556  S
Fe1879     O1884   2.067   1_554  S
Fe1879     O1880   2.067   1_554  S
Fe1879     O1888   1.982       .  S
O1880      C1887   1.268       .  A
O1881      C1895   1.267       .  A
O1882      C1887   1.268       .  A
O1883      C1886   1.266       .  A
O1884      C1896   1.266       .  A
O1885      C1898   1.267       .  A
C1886      O1891   1.265       .  A
C1886      C2144   1.435       .  S
C1887      C2140   1.436       .  S
O1889      C1892   1.271       .  A
O1890      C1892   1.266       .  A
C1892      C2138   1.438       .  S
O1893      C1898   1.265       .  A
O1894      C1896   1.268       .  A
C1895      O1897   1.269       .  A
C1895      C2135   1.430       .  S
C1896      C2134   1.440       .  S
C1898      C2141   1.436       .  S
Fe1899     O1915   2.057       .  S
Fe1899     O1905   2.073       .  S
Fe1900     O1903   2.053       .  S
Fe1900     O1907   2.069       .  S
Fe1901     O1906   2.060       .  S
Fe1901     O1902   2.055       .  S
Fe1901     O1910   1.982       .  S
O1902      C1909   1.266       .  A
O1903      C1917   1.264       .  A
O1904      C1909   1.267       .  A
O1905      C1908   1.269       .  A
O1906      C1918   1.266       .  A
O1907      C1920   1.267       .  A
C1908      O1913   1.266       .  A
C1908      C2127   1.430       .  S
C1909      C2132   1.429       .  S
O1911      C1914   1.267       .  A
O1912      C1914   1.267       .  A
C1914      C2124   1.440       .  S
O1915      C1920   1.266       .  A
O1916      C1918   1.268       .  A
C1917      O1919   1.267       .  A
C1917      C2126   1.431       .  S
C1918      C2129   1.431       .  S
C1920      C2121   1.432       .  S
C1921      C1926   1.416   1_545  A
C1921      C2117   1.491       .  S
C1922      C1923   1.415       .  A
C1923      C2097   1.485       .  S
C1924      C1925   1.414   1_545  A
C1924      C2106   1.490   1_545  S
C1925      C2109   1.491       .  S
C1926      C2113   1.486       .  S
C1927      C2096   1.432       .  S
C1927      N1928   1.353       .  A
C1929      C2118   1.473       .  S
C1929      N1930   1.361       .  A
N1930      C1931   1.360       .  A
C1931      C2123   1.440       .  S
C1931      N1932   1.360       .  A
C1933      C2093   1.430       .  S
C1933      N1934   1.356       .  A
C1933      N1938   1.357       .  A
N1934      C1935   1.354       .  A
C1935      C2105   1.477       .  S
N1936      C1937   1.358       .  A
C1937      C2142   1.436       .  S
C1939      C2130   1.431       .  S
C1939      N1940   1.353       .  A
C1939      N1944   1.358       .  A
N1940      C1941   1.352       .  A
C1941      C2098   1.472       .  S
C1941      N1942   1.361       .  A
N1942      C1943   1.359       .  A
C1943      C2091   1.440       .  S
C1943      N1944   1.360       .  A
C1945      C2089   1.433       .  S
C1945      N1946   1.358   1_655  A
C1945      N1950   1.357       .  A
C1947      C2136   1.430       .  S
C1947      N1948   1.354       .  A
C1949      C2102   1.470       .  S
C1949      N1950   1.358   1_455  A
C1951      C2143   1.435       .  S
C1951      N1952   1.357       .  A
C1951      N1956   1.359       .  A
N1952      C1953   1.359       .  A
C1953      C2114   1.472       .  S
C1953      N1954   1.355       .  A
N1954      C1955   1.356       .  A
C1955      C2087   1.434       .  S
C1955      N1956   1.358       .  A
C1957      C2086   1.433       .  S
C1957      N1958   1.355       .  A
C1957      N1962   1.357       .  A
C1959      C2131   1.430       .  S
C1959      N1960   1.356       .  A
C1961      C2110   1.477       .  S
C1961      N1962   1.361       .  A
Fe1963     O1979   2.069       .  S
Fe1963     O1969   2.062       .  S
Fe1963     O1976   2.067       .  S
Fe1963     O1968   2.066       .  S
Fe1963     O1974   1.981       .  S
Fe1964     O1967   2.074       .  S
Fe1964     O1971   2.055       .  S
Fe1964     O1975   2.069       .  S
Fe1964     O1980   2.061       .  S
Fe1964     O1974   1.979       .  S
Fe1965     O1983   2.055       .  S
Fe1965     O1970   2.061       .  S
Fe1965     O1977   2.064       .  S
Fe1965     O1966   2.056       .  S
Fe1965     O1974   1.981       .  S
O1966      C1973   1.265       .  A
O1967      C1981   1.268       .  A
O1968      C1973   1.268       .  A
O1969      C1972   1.266       .  A
O1970      C1982   1.267       .  A
O1971      C1984   1.267       .  A
C1972      O1977   1.266       .  A
C1972      C2090   1.433       .  S
C1973      C2080   1.430       .  S
O1975      C1978   1.267       .  A
O1976      C1978   1.266       .  A
C1978      C2082   1.438       .  S
O1979      C1984   1.268       .  A
O1980      C1982   1.266       .  A
C1981      O1983   1.265       .  A
C1981      C2088   1.434       .  S
C1982      C2083   1.430       .  S
C1984      C2094   1.430       .  S
Fe1985     O2001   2.061       .  S
Fe1985     O1991   2.073       .  S
Fe1985     O1998   2.074       .  S
Fe1985     O1990   2.061       .  S
Fe1985     O1996   1.982       .  S
Fe1986     O1989   2.063       .  S
Fe1986     O1993   2.069       .  S
Fe1986     O1997   2.062       .  S
Fe1986     O2002   2.069       .  S
Fe1986     O1996   1.980       .  S
Fe1987     O2005   2.075       .  S
Fe1987     O1992   2.058       .  S
Fe1987     O1999   2.059       .  S
Fe1987     O1988   2.069       .  S
Fe1987     O1996   1.984       .  S
O1988      C1995   1.268       .  A
O1989      C2003   1.266       .  A
O1990      C1995   1.267       .  A
O1991      C1994   1.268       .  A
O1992      C2004   1.265       .  A
O1993      C2006   1.269       .  A
C1994      O1999   1.265       .  A
C1994      C2076   1.436       .  S
C1995      C2085   1.433       .  S
O1997      C2000   1.265       .  A
O1998      C2000   1.267       .  A
C2000      C2092   1.439       .  S
O2001      C2006   1.268       .  A
O2002      C2004   1.269       .  A
C2003      O2005   1.269       .  A
C2003      C2077   1.440       .  S
C2004      C2095   1.432       .  S
C2006      C2074   1.432       .  S
C2007      C2061   1.499       .  S
C2008      C2058   1.488       .  S
C2009      C2010   1.413       .  A
C2009      C2070   1.493       .  S
C2010      C2066   1.492       .  S
C2011      C2012   1.417       .  A
C2011      C2053   1.489       .  S
C2012      C2049   1.493       .  S
C2013      C2081   1.438       .  S
C2013      N2014   1.357       .  A
C2015      C2065   1.476       .  S
C2015      N2016   1.358   1_545  A
N2016      C2017   1.356       .  A
C2017      C2137   1.438       .  S
C2017      N2018   1.361   1_565  A
C2019      C2078   1.440       .  S
C2019      N2024   1.360       .  A
N2020      C2021   1.357       .  A
C2021      C2122   1.433       .  S
C2021      N2022   1.357       .  A
N2022      C2023   1.358       .  A
C2023      C2062   1.479       .  S
C2025      C2079   1.429       .  S
C2025      N2026   1.356   1_655  A
C2025      N2030   1.351       .  A
C2027      C2133   1.440       .  S
C2027      N2028   1.363       .  A
C2029      C2050   1.475       .  S
C2029      N2030   1.352       .  A
C2031      C2125   1.432       .  S
C2031      N2032   1.357       .  A
C2031      N2036   1.357       .  A
N2032      C2033   1.358       .  A
C2033      C2054   1.471       .  S
C2033      N2034   1.356       .  A
N2034      C2035   1.356       .  A
C2035      C2073   1.432       .  S
C2035      N2036   1.357       .  A
C2037      C2075   1.437       .  S
C2037      N2038   1.357       .  A
C2037      N2042   1.360       .  A
C2039      C2128   1.430       .  S
C2039      N2040   1.356       .  A
C2041      C2069   1.479       .  S
C2041      N2042   1.362       .  A
C2043      C2139   1.436       .  S
C2043      N2044   1.357       .  A
C2043      N2048   1.358       .  A
N2044      C2045   1.356       .  A
C2045      C2084   1.430       .  S
C2045      N2046   1.355       .  A
N2046      C2047   1.354       .  A
C2047      C2057   1.474       .  S
C2047      N2048   1.361       .  A
C2053      C2054   1.344       .  D
C2053      H2055   1.086       .  S
C2054      H2056   1.086       .  S
C2057      C2058   1.340       .  D
C2057      H2059   1.086       .  S
C2058      H2060   1.087       .  S
C2061      C2062   1.350       .  D
C2061      H2063   1.086       .  S
C2065      C2066   1.343   1_545  D
C2065      H2067   1.085       .  S
C2069      C2070   1.341       .  D
C2070      H2072   1.087       .  S
C2073      C2074   1.204       .  T
C2075      C2076   1.207       .  T
C2077      C2078   1.209       .  T
C2079      C2080   1.202       .  T
C2081      C2082   1.207       .  T
C2083      C2084   1.203       .  T
C2085      C2086   1.204       .  T
C2087      C2088   1.205       .  T
C2089      C2090   1.205       .  T
C2091      C2092   1.208       .  T
C2093      C2094   1.203       .  T
C2095      C2096   1.204       .  T
C2097      C2098   1.338       .  D
C2097      H2099   1.087       .  S
C2098      H2100   1.087       .  S
C2101      C2102   1.340   1_655  D
C2101      H2103   1.087       .  S
C2109      C2110   1.341       .  D
C2109      H2111   1.087       .  S
C2113      C2114   1.342       .  D
C2113      H2115   1.087       .  S
C2114      H2116   1.086       .  S
C2121      C2122   1.204       .  T
C2123      C2124   1.209       .  T
C2125      C2126   1.203       .  T
C2127      C2128   1.203       .  T
C2129      C2130   1.203       .  T
C2131      C2132   1.202       .  T
C2133      C2134   1.209       .  T
C2135      C2136   1.203       .  T
C2137      C2138   1.208       .  T
C2139      C2140   1.206       .  T
C2141      C2142   1.206       .  T
C2143      C2144   1.206       .  T
