geometry optimzed in LAMMPS
_audit_creation_date              2020-11-30 
_audit_creation_method            'lammps2cif' 
_symmetry_space_group_name_H-M    'P1' 
_symmetry_Int_Tables_number       1 
_symmetry_cell_setting            triclinic 
loop_ 
_symmetry_equiv_pos_as_xyz 
  x,y,z 
_cell_length_a                    33.53850896 
_cell_length_b                    33.31714186402296 
_cell_length_c                    33.52550750865582 
_cell_angle_alpha                 89.1894292265402 
_cell_angle_beta                  90.12377404295142 
_cell_angle_gamma                 90.21399673464734 
loop_ 
_atom_site_label 
_atom_site_type_symbol 
_atom_site_fract_x 
_atom_site_fract_y 
_atom_site_fract_z 
_atom_site_charge 
C1          C  0.14446095  0.73037948  0.96333685     0.81600
N2          N  0.17094796  0.73482448  0.99347107    -0.76800
C3          C  0.15878854  0.74139629  0.03099150     0.84000
N4          N  0.11891923  0.74331683  0.03884763    -0.76700
C5          C  0.09179378  0.73880167  0.00879361     0.84100
N6          N  0.10484166  0.73234437  0.97098200    -0.78400
C7          C  0.33772304  0.58905184  0.04372832     0.81600
N8          N  0.33586370  0.61353240  0.01104037    -0.76800
C9          C  0.33885430  0.59846048  0.97373594     0.84000
N10         N  0.34321020  0.55774640  0.96922947    -0.76700
C11         C  0.34513697  0.53328941  0.00245636     0.84100
N12         N  0.34246167  0.54937484  0.03909768    -0.78400
C13         C  0.94152455  0.25598448  0.02566633     0.81600
N14         N  0.98169329  0.25868102  0.02134379    -0.76800
C15         C  0.99834403  0.26069063  0.98439854     0.84000
N16         N  0.97481989  0.26030663  0.95182785    -0.76700
C17         C  0.93483545  0.25782793  0.95532933     0.84100
N18         N  0.91789813  0.25529903  0.99235695    -0.78400
C19         C  0.72588820  0.37181986  0.97051751     0.81600
N20         N  0.72903720  0.35427299  0.00713473    -0.76800
C21         C  0.72385842  0.37571113  0.04082561     0.84000
N22         N  0.71543852  0.41503807  0.03796382    -0.76700
C23         C  0.71302328  0.43361393  0.00200487     0.84100
N24         N  0.71857677  0.41222480  0.96774191    -0.78400
C25         C  0.76148193  0.95348787  0.09913090     0.81600
N26         N  0.75648675  0.95686369  0.05891873    -0.76800
C27         C  0.75253058  0.99369404  0.04121752     0.84000
N28         N  0.75337365  0.02687354  0.06364499    -0.76700
C29         C  0.75931934  0.02420762  0.10331514     0.84100
N30         N  0.76373162  0.98751653  0.12132048    -0.78400
C31         C  0.65145724  0.02802623  0.29602922     0.81600
N32         N  0.61160001  0.02547308  0.29990633    -0.76800
C33         C  0.59287553  0.98950085  0.30284935     0.84000
N34         N  0.61463629  0.95482855  0.30181523    -0.76700
C35         C  0.65531720  0.95714123  0.29819350     0.84100
N36         N  0.67323570  0.99378351  0.29516006    -0.78400
C37         C  0.29176750  0.99912758  0.88679492     0.81600
N38         N  0.29226797  0.96161500  0.87181905    -0.76800
C39         C  0.29973115  0.92932388  0.89567072     0.84000
N40         N  0.30695020  0.93473858  0.93479616    -0.76700
C41         C  0.30600447  0.97192222  0.95061396     0.84100
N42         N  0.29834679  0.00449447  0.92665476    -0.78400
C43         C  0.42791839  0.93025195  0.69092002     0.81600
N44         N  0.46734256  0.93967618  0.68840799    -0.76800
C45         C  0.47934385  0.97879874  0.68889208     0.84000
N46         N  0.45185626  0.00815477  0.69309854    -0.76700
C47         C  0.41249673  0.99911297  0.69635424     0.84100
N48         N  0.40070308  0.96020814  0.69492327    -0.78400
C49         C  0.92281264  0.74665030  0.03960294     0.81600
N50         N  0.89738381  0.74557540  0.00801972    -0.76800
C51         C  0.91138747  0.74161460  0.97048270     0.84000
N52         N  0.95144748  0.73879530  0.96455546    -0.76700
C53         C  0.97723123  0.73993874  0.99593126     0.84100
N54         N  0.96269552  0.74361832  0.03352111    -0.78400
C55         C  0.73509204  0.59985543  0.03393426     0.81600
N56         N  0.73986879  0.62556053  0.00199670    -0.76800
C57         C  0.74134010  0.61112222  0.96399660     0.84000
N58         N  0.73826407  0.57115189  0.95815655    -0.76700
C59         C  0.73272815  0.54544832  0.98905844     0.84100
N60         N  0.73139760  0.55971979  0.02704249    -0.78400
C61         C  0.16248768  0.22161145  0.96645663     0.81600
N62         N  0.12452842  0.23571662  0.96842700    -0.76800
C63         C  0.10777002  0.24224062  0.00474598     0.84000
N64         N  0.12883570  0.23480718  0.03828648    -0.76700
C65         C  0.16647294  0.22085693  0.03634819     0.84100
N66         N  0.18326014  0.21427349  0.00047351    -0.78400
C67         C  0.32187320  0.35360580  0.96374136     0.81600
N68         N  0.32332408  0.34096125  0.00268018    -0.76800
C69         C  0.32878212  0.36777045  0.03272671     0.84000
N70         N  0.33288726  0.40732673  0.02326188    -0.76700
C71         C  0.33174531  0.42047996  0.98455191     0.84100
N72         N  0.32579202  0.39353414  0.95501221    -0.78400
C73         C  0.79357523  0.95235904  0.87009085     0.81600
N74         N  0.77996294  0.94680443  0.90771449    -0.76800
C75         C  0.77468341  0.97837093  0.93183840     0.84000
N76         N  0.78311183  0.01618922  0.91817466    -0.76700
C77         C  0.79746939  0.02159026  0.88052809     0.84100
N78         N  0.80269054  0.98961026  0.85675753    -0.78400
C79         C  0.64397275  0.02307953  0.70465096     0.81600
N80         N  0.60510915  0.01356692  0.69792595    -0.76800
C81         C  0.59379594  0.97450704  0.69373792     0.84000
N82         N  0.62158570  0.94505833  0.69630052    -0.76700
C83         C  0.66057148  0.95409585  0.70280152     0.84100
N84         N  0.67149428  0.99308426  0.70713148    -0.78400
C85         C  0.28607027  0.01311374  0.12827502     0.81600
N86         N  0.28768742  0.02221274  0.08842842    -0.76800
C87         C  0.29500871  0.99269020  0.06168875     0.84000
N88         N  0.29957499  0.95419940  0.07498030    -0.76700
C89         C  0.29738511  0.94516920  0.11430412     0.84100
N90         N  0.29118892  0.97482837  0.14075565    -0.78400
C91         C  0.41289547  0.94618396  0.29886344     0.81600
N92         N  0.40044916  0.98499842  0.29702200    -0.76800
C93         C  0.42730367  0.01575965  0.29838088     0.84000
N94         N  0.46661531  0.00729810  0.30119427    -0.76700
C95         C  0.47969200  0.96870290  0.30309661     0.84100
N96         N  0.45269604  0.93821143  0.30176068    -0.78400
C97         C  0.98656678  0.08894811  0.76361531     0.81600
N98         N  0.98837704  0.04856063  0.76620146    -0.76800
C99         C  0.02377826  0.02919409  0.76680840     0.84000
N100        N  0.05852649  0.05076081  0.76396622    -0.76700
C101        C  0.05715837  0.09178797  0.76069941     0.84100
N102        N  0.02103605  0.11052803  0.76088567    -0.78400
C103        C  0.99847136  0.27304180  0.62966833     0.81600
N104        N  0.03523116  0.26806466  0.64522923    -0.76800
C105        C  0.06774646  0.26419147  0.62179687     0.84000
N106        N  0.06350537  0.26534589  0.58122604    -0.76700
C107        C  0.02639228  0.27062007  0.56467601     0.84100
N108        N  0.99400914  0.27426197  0.58918705    -0.78400
C109        C  0.07523371  0.85280612  0.79567899     0.81600
N110        N  0.07986766  0.89309304  0.78984204    -0.76800
C111        C  0.04743363  0.91695545  0.78455729     0.84000
N112        N  0.01030667  0.89990836  0.78390183    -0.76700
C113        C  0.00598433  0.85964870  0.79005785     0.84100
N114        N  0.03841393  0.83662513  0.79631222    -0.78400
C115        C  0.00463209  0.68422989  0.60299320     0.81600
N116        N  0.00781346  0.67945439  0.56298802    -0.76800
C117        C  0.04383914  0.67372644  0.54593018     0.84000
N118        N  0.07695997  0.67274727  0.56894743    -0.76700
C119        C  0.07504142  0.67748529  0.60890898     0.84100
N120        N  0.03853584  0.68351081  0.62631559    -0.78400
C121        C  0.07764245  0.87031307  0.26799905     0.81600
N122        N  0.07087059  0.90961037  0.27482387    -0.76800
C123        C  0.03322169  0.92422251  0.27414729     0.84000
N124        N  0.00212366  0.89935316  0.26683583    -0.76700
C125        C  0.00805785  0.85981187  0.26003290     0.84100
N126        N  0.04608364  0.84527278  0.26043320    -0.78400
C127        C  0.07627914  0.68088855  0.38181448     0.81600
N128        N  0.06671475  0.67898127  0.42077786    -0.76800
C129        C  0.02820927  0.67942243  0.43271322     0.84000
N130        N  0.99874296  0.68282317  0.40493319    -0.76700
C131        C  0.00775593  0.68504371  0.36521388     0.84100
N132        N  0.04673693  0.68402600  0.35383483    -0.78400
C133        C  0.00183536  0.08701230  0.24699565     0.81600
N134        N  0.03220459  0.11361123  0.24374507    -0.76800
C135        C  0.06970229  0.10255409  0.25233467     0.84000
N136        N  0.07731943  0.06398607  0.26391324    -0.76700
C137        C  0.04691301  0.03709071  0.26721693     0.84100
N138        N  0.00905905  0.04890855  0.25903461    -0.78400
C139        C  0.07072450  0.27403767  0.38376245     0.81600
N140        N  0.07553309  0.27291932  0.42417974    -0.76800
C141        C  0.04323133  0.27148812  0.44896210     0.84000
N142        N  0.00574960  0.27084295  0.43277433    -0.76700
C143        C  0.00056128  0.27197349  0.39235638     0.84100
N144        N  0.03323201  0.27343546  0.36832153    -0.78400
C145        C  0.28370653  0.51071596  0.40033279     0.81600
N146        N  0.27945343  0.47799756  0.37653960    -0.76800
C147        C  0.27685798  0.44055653  0.39327060     0.84000
N148        N  0.27923089  0.43574929  0.43310263    -0.76700
C149        C  0.28469092  0.46745017  0.45690093     0.84100
N150        N  0.28665630  0.50518506  0.44063583    -0.78400
C151        C  0.14591300  0.44153591  0.21310557     0.81600
N152        N  0.10633213  0.45048381  0.21255084    -0.76800
C153        C  0.09432871  0.48950849  0.20915873     0.84000
N154        N  0.12202750  0.51922030  0.20650051    -0.76700
C155        C  0.16151468  0.51046629  0.20713255     0.84100
N156        N  0.17312471  0.47179537  0.21073358    -0.78400
O157        O  0.24687064  0.75098827  0.12882397    -0.85200
O158        O  0.20144117  0.68730353  0.34163666    -0.85300
O159        O  0.19304667  0.64879129  0.20979836    -0.87000
O160        O  0.16823532  0.76718153  0.23795800    -0.85700
O161        O  0.20054791  0.82165385  0.26387151    -0.85300
O162        O  0.24732574  0.60746104  0.21225543    -0.86700
O163        O  0.16937125  0.68975939  0.28101570    -0.85200
O164        O  0.19335867  0.72850834  0.16556960    -0.84800
Zr165      Zr  0.21491810  0.71387581  0.23193139     2.84300
O166        O  0.23418321  0.74676101  0.28993562    -1.06800
O167        O  0.26741406  0.69400340  0.19217975    -1.07500
C168        C  0.20936794  0.74179078  0.13336430     1.08000
C169        C  0.17025140  0.68367047  0.31874778     1.07900
C170        C  0.20979934  0.61438227  0.20668602     1.10900
C171        C  0.16898462  0.80312935  0.25085734     1.08700
H172        H  0.23507943  0.64728277  0.27941341     0.34200
O173        O  0.25135274  0.67006405  0.27185170    -1.27700
H174        H  0.23389600  0.78875092  0.19721618     0.33900
O175        O  0.25070362  0.77077964  0.21254838    -1.29400
O176        O  0.33237530  0.70226169  0.37325826    -0.85200
O177        O  0.37733286  0.76522430  0.15874150    -0.86600
O178        O  0.29772277  0.60039326  0.28668887    -0.85200
O179        O  0.25492403  0.81729299  0.33761493    -0.85300
O180        O  0.27579999  0.85243090  0.21882524    -0.85000
O181        O  0.32045247  0.63850315  0.16112820    -0.84800
O182        O  0.40579906  0.67757087  0.26806226    -0.85200
O183        O  0.38441309  0.80573691  0.28730325    -0.84600
O184        O  0.37030322  0.62442159  0.24327413    -0.85700
O185        O  0.32899144  0.84595931  0.28663114    -0.84900
O186        O  0.28039327  0.63122726  0.34522201    -0.85200
O187        O  0.32076852  0.69964824  0.12822794    -0.85000
O188        O  0.29920856  0.82353003  0.16158889    -0.84600
O189        O  0.25434698  0.75896684  0.37507608    -0.85000
O190        O  0.38655290  0.72413087  0.33690313    -0.85300
O191        O  0.41196445  0.75731543  0.21744718    -0.86700
Zr192      Zr  0.27292976  0.70351614  0.32967211     2.83100
Zr193      Zr  0.30552723  0.75123982  0.17440098     2.83500
Zr194      Zr  0.30403988  0.64935885  0.23182208     2.84100
Zr195      Zr  0.27196925  0.80248429  0.27030291     2.83400
Zr196      Zr  0.36499760  0.73780320  0.26962748     2.84200
O197        O  0.32689215  0.78284465  0.23227748    -1.07200
O198        O  0.32584192  0.68301801  0.28889655    -1.06700
C199        C  0.36993065  0.71094353  0.36904084     1.07900
C200        C  0.41018660  0.76506115  0.17965068     1.10500
C201        C  0.28915097  0.59991499  0.32432491     1.08100
C202        C  0.24993636  0.79756656  0.37036307     1.08500
C203        C  0.28729345  0.85367695  0.18237180     1.08000
C204        C  0.32415738  0.66132574  0.12959025     1.07600
C205        C  0.40179314  0.64042066  0.25817268     1.08000
C206        C  0.36697442  0.83999506  0.29047410     1.07500
H207        H  0.36588640  0.69573860  0.19734841     0.34200
O208        O  0.34318380  0.70507378  0.21251932    -1.28300
H209        H  0.32186140  0.77326275  0.33204545     0.34200
O210        O  0.31167275  0.75924314  0.30922582    -1.29700
C211        C  0.44273605  0.22197333  0.46275266     0.81600
N212        N  0.48227197  0.22488178  0.47028742    -0.76800
C213        C  0.49614587  0.22724841  0.50834143     0.84000
N214        N  0.46981548  0.22610852  0.53943146    -0.76700
C215        C  0.42980534  0.22279440  0.53231871     0.84100
N216        N  0.41665927  0.22112969  0.49391360    -0.78400
C217        C  0.24476125  0.08250087  0.46086866     0.81600
N218        N  0.24774196  0.10572879  0.49375872    -0.76800
C219        C  0.24441835  0.08946174  0.53085727     0.84000
N220        N  0.23781957  0.04953758  0.53522076    -0.76700
C221        C  0.23454507  0.02573423  0.50288242     0.84100
N222        N  0.23827774  0.04218795  0.46549275    -0.78400
O223        O  0.27671067  0.09670614  0.80251725    -0.85200
O224        O  0.30633198  0.32103010  0.82331727    -0.85300
O225        O  0.35893071  0.19688212  0.85391664    -0.87000
O226        O  0.23116943  0.21469197  0.86381820    -0.85700
O227        O  0.17840516  0.22837084  0.82221534    -0.85300
O228        O  0.40253608  0.19340247  0.80144888    -0.86700
O229        O  0.30418928  0.26765023  0.86725840    -0.85200
O230        O  0.28927359  0.14008435  0.85376666    -0.84800
Zr231      Zr  0.29222859  0.20789742  0.82673385     2.84300
O232        O  0.25463181  0.25788543  0.79468912    -1.06800
O233        O  0.32096210  0.16523967  0.78003165    -1.07500
C234        C  0.28379190  0.10473938  0.83961359     1.08000
C235        C  0.30779706  0.30556499  0.85897323     1.07900
C236        C  0.39424097  0.19290685  0.83925252     1.10900
C237        C  0.19408978  0.22234934  0.85701168     1.08700
H238        H  0.35485282  0.25814444  0.80330769     0.34200
O239        O  0.33458485  0.24612526  0.78678893    -1.27700
H240        H  0.22481771  0.16249578  0.80473619     0.33900
O241        O  0.24217670  0.17818606  0.78766299    -1.29400
O242        O  0.30341032  0.33290674  0.69177471    -0.85200
O243        O  0.25857481  0.11176028  0.67282110    -0.86600
O244        O  0.40371431  0.26351828  0.74212086    -0.85200
O245        O  0.18372326  0.29864750  0.76234153    -0.85300
O246        O  0.16205734  0.16865769  0.75309368    -0.85000
O247        O  0.38489851  0.13526030  0.72960954    -0.84800
O248        O  0.34116231  0.22180434  0.62825041    -0.85200
O249        O  0.21184421  0.23890850  0.63864318    -0.84600
O250        O  0.39202981  0.20963606  0.67266534    -0.85700
O251        O  0.16935511  0.23979618  0.69211366    -0.84900
O252        O  0.36652179  0.31977636  0.75460091    -0.85200
O253        O  0.32983370  0.09404306  0.72802459    -0.85000
O254        O  0.20164389  0.11293387  0.74716392    -0.84600
O255        O  0.23882988  0.33981623  0.76261978    -0.85000
O256        O  0.28968384  0.29251728  0.63851772    -0.85300
O257        O  0.26526906  0.16526174  0.62934404    -0.86700
Zr258      Zr  0.29739750  0.29652324  0.75492825     2.83100
Zr259      Zr  0.27120182  0.13608656  0.74031527     2.83500
Zr260      Zr  0.36332411  0.20378785  0.73975789     2.84100
Zr261      Zr  0.20542374  0.22859723  0.75451657     2.83400
Zr262      Zr  0.27848119  0.22575207  0.66672678     2.84200
O263        O  0.23540444  0.18719426  0.70731357    -1.07200
O264        O  0.32690759  0.25456008  0.70775984    -1.06700
C265        C  0.29944693  0.32635910  0.65402705     1.07900
C266        C  0.25866484  0.12782977  0.63747183     1.10500
C267        C  0.39968787  0.30127658  0.74838900     1.08100
C268        C  0.20072983  0.33356805  0.76464095     1.08500
C269        C  0.16729507  0.13015620  0.75106786     1.08000
C270        C  0.36781690  0.10082642  0.72545749     1.07600
C271        C  0.37848785  0.21626578  0.63701285     1.08000
C272        C  0.17681189  0.24249987  0.65430368     1.07500
H273        H  0.32662309  0.15787071  0.67983680     0.34200
O274        O  0.31420033  0.17461566  0.69951671    -1.28300
H275        H  0.23361215  0.28825833  0.70046045     0.34200
O276        O  0.24837877  0.26737045  0.71414180    -1.29700
C277        C  0.41444585  0.69782064  0.47346306     0.81600
N278        N  0.45436016  0.69608794  0.46699363    -0.76800
C279        C  0.48038336  0.69803686  0.49801519     0.84000
N280        N  0.46640024  0.70239518  0.53571784    -0.76700
C281        C  0.42656210  0.70426412  0.54216586     0.84100
N282        N  0.40087192  0.70176547  0.51097983    -0.78400
C283        C  0.22678529  0.85915566  0.54136821     0.81600
N284        N  0.22803204  0.83143012  0.51194005    -0.76800
C285        C  0.22786911  0.84297849  0.47302007     0.84000
N286        N  0.22633619  0.88289589  0.46349268    -0.76700
C287        C  0.22505793  0.91088277  0.49256447     0.84100
N288        N  0.22572671  0.89872505  0.53148335    -0.78400
C289        C  0.31972225  0.50270826  0.63190162     0.81600
N290        N  0.31235577  0.50893198  0.59265116    -0.76800
C291        C  0.30962446  0.47781757  0.56752716     0.84000
N292        N  0.31389296  0.43951678  0.58195307    -0.76700
C293        C  0.32235644  0.43341179  0.62139317     0.84100
N294        N  0.32534044  0.46510480  0.64603935    -0.78400
C295        C  0.15892928  0.44168590  0.77847596     0.81600
N296        N  0.11863214  0.43621397  0.77865920    -0.76800
C297        C  0.09373088  0.46811489  0.78230893     0.84000
N298        N  0.10914949  0.50551967  0.78583319    -0.76700
C299        C  0.14896062  0.51154069  0.78638425     0.84100
N300        N  0.17397462  0.47955485  0.78249961    -0.78400
O301        O  0.25377425  0.73691221  0.87522998    -0.85200
O302        O  0.19152478  0.68653299  0.66725893    -0.85300
O303        O  0.17020479  0.76848420  0.77927180    -0.87000
O304        O  0.19796224  0.63361901  0.78967945    -0.85700
O305        O  0.25766229  0.59986713  0.78828385    -0.85300
O306        O  0.20408061  0.82110772  0.74968881    -0.86700
O307        O  0.15891760  0.69124871  0.72711837    -0.85200
O308        O  0.19596014  0.71366164  0.84653220    -0.84800
Zr309      Zr  0.21021235  0.70626222  0.77601279     2.84300
O310        O  0.24773677  0.66451568  0.73486289    -1.06800
O311        O  0.25038133  0.76140557  0.79135656    -1.07500
C312        C  0.21689660  0.72608390  0.87629972     1.08000
C313        C  0.15938532  0.68580489  0.68912871     1.07900
C314        C  0.17401436  0.80578997  0.76791370     1.10900
C315        C  0.21973210  0.60137891  0.79253519     1.08700
H316        H  0.20348506  0.75295697  0.70444157     0.34200
O317        O  0.22696109  0.74299875  0.71808431    -1.27700
H318        H  0.26086398  0.66900243  0.83199045     0.33900
O319        O  0.26834920  0.68477693  0.80869375    -1.29400
O320        O  0.31582249  0.70666502  0.62839693    -0.85200
O321        O  0.37452911  0.75904977  0.83992174    -0.86600
O322        O  0.24632564  0.81192298  0.66374649    -0.85200
O323        O  0.30422396  0.60036162  0.71094781    -0.85300
O324        O  0.32869674  0.62666996  0.83294338    -0.85000
O325        O  0.27686829  0.84388531  0.78627026    -0.84800
O326        O  0.37975898  0.80749929  0.70774181    -0.85200
O327        O  0.41245909  0.68276960  0.73218025    -0.84600
O328        O  0.32023902  0.84116184  0.70892987    -0.85700
O329        O  0.37687293  0.62874531  0.75630101    -0.84900
O330        O  0.24294166  0.75178938  0.63160685    -0.85200
O331        O  0.29943030  0.81129535  0.84284352    -0.85000
O332        O  0.32600898  0.68287409  0.87150679    -0.84600
O333        O  0.27274866  0.63262930  0.65889434    -0.85000
O334        O  0.37539620  0.72567092  0.65714596    -0.85300
O335        O  0.41050626  0.75626392  0.78171836    -0.86700
Zr336      Zr  0.26395129  0.70112845  0.67792309     2.83100
Zr337      Zr  0.30671733  0.74006175  0.82666302     2.83500
Zr338      Zr  0.26853199  0.79684720  0.73307989     2.84100
Zr339      Zr  0.30764333  0.64626977  0.76644790     2.83400
Zr340      Zr  0.36410073  0.73751773  0.72779291     2.84200
O341        O  0.34636559  0.70084454  0.78546513    -1.07200
O342        O  0.30564145  0.75584293  0.69283083    -1.06700
C343        C  0.35334973  0.71494424  0.62739125     1.07900
C344        C  0.40692312  0.76223861  0.81970171     1.10500
C345        C  0.23945718  0.79002199  0.63270906     1.08100
C346        C  0.29001800  0.60221023  0.67517781     1.08500
C347        C  0.33166873  0.64460007  0.86655976     1.08000
C348        C  0.28838023  0.84295205  0.82286042     1.07600
C349        C  0.35805819  0.83939473  0.70316214     1.08000
C350        C  0.40925725  0.64588221  0.74426953     1.07500
H351        H  0.34072294  0.80012031  0.77672401     0.34200
O352        O  0.32524259  0.77694561  0.76910077    -1.28300
H353        H  0.33961918  0.66556484  0.69226459     0.34200
O354        O  0.32417442  0.68246727  0.70945489    -1.29700
C355        C  0.75711169  0.44774322  0.36258582     0.81600
N356        N  0.76470973  0.44402759  0.40226662    -0.76800
C357        C  0.76812801  0.47698287  0.42538787     0.84000
N358        N  0.76518528  0.51421744  0.40802549    -0.76700
C359        C  0.75699156  0.51751714  0.36811401     0.84100
N360        N  0.75261804  0.48436702  0.34597531    -0.78400
C361        C  0.92813869  0.53252860  0.20393543     0.81600
N362        N  0.90077378  0.50213864  0.20039568    -0.76800
C363        C  0.91277257  0.46311878  0.19870234     0.84000
N364        N  0.95232012  0.45480351  0.20071791    -0.76700
C365        C  0.97976355  0.48444910  0.20443426     0.84100
N366        N  0.96757938  0.52334252  0.20634853    -0.78400
C367        C  0.57278247  0.59747927  0.29095248     0.81600
N368        N  0.53860755  0.61850662  0.29383210    -0.76800
C369        C  0.50307579  0.60034611  0.28875844     0.84000
N370        N  0.50147939  0.56042265  0.28204578    -0.76700
C371        C  0.53531761  0.53844740  0.28016668     0.84100
N372        N  0.57147861  0.55716537  0.28370407    -0.78400
C373        C  0.56894186  0.78486603  0.10922760     0.81600
N374        N  0.57157543  0.78606633  0.06917800    -0.76800
C375        C  0.53908744  0.78311972  0.04576320     0.84000
N376        N  0.50231606  0.77969500  0.06278376    -0.76700
C377        C  0.49840631  0.77920477  0.10342139     0.84100
N378        N  0.53215860  0.78122860  0.12678598    -0.78400
O379        O  0.78679730  0.86736286  0.21339052    -0.85200
O380        O  0.74912120  0.64864348  0.15773244    -0.85300
O381        O  0.81270041  0.76623076  0.12667317    -0.87000
O382        O  0.68524785  0.77173723  0.16517981    -0.85700
O383        O  0.65263878  0.75935435  0.22430397    -0.85300
O384        O  0.87078654  0.74385186  0.15629290    -0.86700
O385        O  0.74410930  0.71014322  0.12636556    -0.85200
O386        O  0.76271925  0.83511999  0.15814305    -0.84800
Zr387      Zr  0.75878562  0.76244518  0.17456951     2.84300
O388        O  0.72357380  0.71545231  0.21352508    -1.06800
O389        O  0.81569546  0.78331334  0.21022870    -1.07500
C390        C  0.77422623  0.86697039  0.17699675     1.08000
C391        C  0.74331537  0.67136817  0.12624855     1.07900
C392        C  0.84999083  0.75690864  0.12618325     1.10900
C393        C  0.65310544  0.76814941  0.18690318     1.08700
H394        H  0.81076327  0.69524486  0.16696299     0.34200
O395        O  0.80186037  0.70833972  0.19083915    -1.27700
H396        H  0.72104783  0.81469963  0.22462400     0.33900
O397        O  0.73860929  0.79309011  0.23278416    -1.29400
O398        O  0.77476882  0.61547667  0.28673084    -0.85200
O399        O  0.81079048  0.83570278  0.33642499    -0.86600
O400        O  0.87806163  0.65835162  0.21053296    -0.85200
O401        O  0.66550388  0.68239875  0.27174820    -0.85300
O402        O  0.68042524  0.81318046  0.29010813    -0.85000
O403        O  0.90360020  0.78582123  0.23486280    -0.84800
O404        O  0.86936820  0.70431705  0.33869884    -0.85200
O405        O  0.75100794  0.71708174  0.37284458    -0.84600
O406        O  0.90617049  0.70917314  0.28130377    -0.85700
O407        O  0.69108749  0.73289193  0.34353188    -0.84900
O408        O  0.82058878  0.62074475  0.20905570    -0.85200
O409        O  0.86552724  0.83808963  0.25783586    -0.85000
O410        O  0.73420310  0.85606540  0.28506004    -0.84600
O411        O  0.70077301  0.63377590  0.23933285    -0.85000
O412        O  0.79912319  0.64981854  0.34075443    -0.85300
O413        O  0.81523539  0.77483255  0.36876691    -0.86700
Zr414      Zr  0.76608831  0.66197422  0.22937930     2.83100
Zr415      Zr  0.79476984  0.81803796  0.26695464     2.83500
Zr416      Zr  0.85864323  0.72883599  0.22703706     2.84100
Zr417      Zr  0.70377753  0.74607123  0.27289592     2.83400
Zr418      Zr  0.80117881  0.71976408  0.32270083     2.84200
O419        O  0.75871919  0.77275467  0.30722789    -1.07200
O420        O  0.82135464  0.68470637  0.26613937    -1.06700
C421        C  0.78695982  0.61791190  0.32345786     1.07900
C422        C  0.81650483  0.81368314  0.36807334     1.10500
C423        C  0.85849175  0.62486769  0.20568826     1.08100
C424        C  0.66992306  0.64645955  0.25784845     1.08500
C425        C  0.69658359  0.84848536  0.29111280     1.08000
C426        C  0.89917203  0.82206887  0.24734790     1.07600
C427        C  0.90236689  0.70243570  0.31944510     1.08000
C428        C  0.71333045  0.72307459  0.37358536     1.07500
H429        H  0.85952497  0.77356404  0.29903610     0.34200
O430        O  0.83721502  0.76420183  0.28352596    -1.28300
H431        H  0.73228681  0.67473210  0.30581000     0.34200
O432        O  0.74626625  0.69346711  0.28850832    -1.29700
C433        C  0.66160624  0.69855563  0.52877086     0.81600
N434        N  0.62209795  0.69771095  0.53810545    -0.76800
C435        C  0.59422831  0.69724918  0.50853660     0.84000
N436        N  0.60604474  0.69902550  0.46978112    -0.76700
C437        C  0.64527496  0.70060078  0.46070452     0.84100
N438        N  0.67277151  0.69975389  0.49031490    -0.78400
C439        C  0.83436066  0.87146226  0.52700118     0.81600
N440        N  0.83396746  0.91133310  0.53520540    -0.76800
C441        C  0.83045403  0.93929011  0.50550873     0.84000
N442        N  0.82704313  0.92678155  0.46679046    -0.76700
C443        C  0.82749172  0.88669402  0.45816264     0.84100
N444        N  0.83107028  0.85950976  0.48862557    -0.78400
C445        C  0.58334123  0.58572613  0.75544341     0.81600
N446        N  0.57319266  0.54742452  0.76583207    -0.76800
C447        C  0.53408172  0.53686749  0.76959046     0.84000
N448        N  0.50554576  0.56462504  0.76315718    -0.76700
C449        C  0.51500383  0.60291337  0.75281082     0.84100
N450        N  0.55399997  0.61346516  0.74902316    -0.78400
C451        C  0.51136231  0.76742825  0.86454709     0.81600
N452        N  0.50180909  0.76955580  0.90385518    -0.76800
C453        C  0.53063219  0.77016386  0.93217487     0.84000
N454        N  0.56964118  0.76813245  0.92103265    -0.76700
C455        C  0.57957660  0.76608256  0.88185473     0.84100
N456        N  0.55019659  0.76549019  0.85375045    -0.78400
C457        C  0.78574429  0.44440606  0.59313012     0.81600
N458        N  0.78363058  0.45232961  0.55329200    -0.76800
C459        C  0.78307396  0.49101472  0.53925052     0.84000
N460        N  0.78499503  0.52184183  0.56556845    -0.76700
C461        C  0.78734219  0.51429696  0.60558940     0.84100
N462        N  0.78748742  0.47562173  0.61893293    -0.78400
C463        C  0.91675330  0.51607867  0.78878520     0.81600
N464        N  0.95698687  0.52083986  0.78610808    -0.76800
C465        C  0.98118829  0.48812160  0.78587675     0.84000
N466        N  0.96499507  0.45073605  0.78805786    -0.76700
C467        C  0.92499547  0.44595145  0.79069932     0.84100
N468        N  0.90111481  0.47869330  0.79091013    -0.78400
O469        O  0.83051736  0.74268125  0.86775766    -0.85200
O470        O  0.88438618  0.71048468  0.65139588    -0.85300
O471        O  0.89023479  0.65741428  0.77662478    -0.87000
O472        O  0.90762880  0.78658618  0.76402623    -0.85700
O473        O  0.87061563  0.84118605  0.74451703    -0.85300
O474        O  0.83694592  0.61438750  0.77016500    -0.86700
O475        O  0.91694029  0.71385634  0.71157019    -0.85200
O476        O  0.88646048  0.72982619  0.83089815    -0.84800
Zr477      Zr  0.86761510  0.72509074  0.76178637     2.84300
O478        O  0.84644059  0.76437605  0.70773730    -1.06800
O479        O  0.81427535  0.69497192  0.79555431    -1.07500
C480        C  0.86847892  0.73649231  0.86393731     1.08000
C481        C  0.91640583  0.70921039  0.67366151     1.07900
C482        C  0.87417845  0.62221211  0.77716179     1.10900
C483        C  0.90297604  0.82461813  0.75704347     1.08700
H484        H  0.84992274  0.66276413  0.70826087     0.34200
O485        O  0.83255355  0.68347195  0.71801663    -1.27700
H486        H  0.84235368  0.79215446  0.80427192     0.33900
O487        O  0.82727931  0.77565053  0.78618768    -1.29400
O488        O  0.75179503  0.72158629  0.61982345    -0.85200
O489        O  0.70295550  0.75802675  0.83614286    -0.86600
O490        O  0.78395685  0.61312720  0.69095143    -0.85200
O491        O  0.82311316  0.83768988  0.66548104    -0.85300
O492        O  0.79519492  0.85488799  0.79094290    -0.85000
O493        O  0.76243292  0.63273859  0.82158802    -0.84800
O494        O  0.67353456  0.68839932  0.72360301    -0.85200
O495        O  0.69377924  0.81388023  0.71033204    -0.84600
O496        O  0.70766779  0.63195244  0.74352432    -0.85700
O497        O  0.74671835  0.85695232  0.71638742    -0.84900
O498        O  0.80587234  0.65420634  0.63959016    -0.85200
O499        O  0.76077963  0.68782262  0.86210128    -0.85000
O500        O  0.77639542  0.81405213  0.84353808    -0.84600
O501        O  0.82686838  0.78365676  0.62365021    -0.85000
O502        O  0.69713352  0.74046890  0.65626132    -0.85300
O503        O  0.67054503  0.76044931  0.77587651    -0.86700
Zr504      Zr  0.81154279  0.72301151  0.66357099     2.83100
Zr505      Zr  0.77395768  0.74593464  0.82063605     2.83500
Zr506      Zr  0.77796405  0.65383379  0.75206548     2.84100
Zr507      Zr  0.80451904  0.81471790  0.73206502     2.83400
Zr508      Zr  0.71718005  0.74598321  0.72385317     2.84200
O509        O  0.75130644  0.78660446  0.76771370    -1.07200
O510        O  0.75735594  0.69513524  0.69893334    -1.06700
C511        C  0.71405624  0.72929933  0.62415319     1.07900
C512        C  0.67144532  0.76264966  0.81405693     1.10500
C513        C  0.79464907  0.61980044  0.65414711     1.08100
C514        C  0.82880617  0.82173843  0.63110863     1.08500
C515        C  0.78514651  0.84828028  0.82760708     1.08000
C516        C  0.75822511  0.64986071  0.85595674     1.07600
C517        C  0.67550589  0.65084888  0.73266904     1.08000
C518        C  0.70940008  0.84929306  0.71020238     1.07500
H519        H  0.71525623  0.69387587  0.79104083     0.34200
O520        O  0.73781441  0.70524883  0.77709986    -1.28300
H521        H  0.75928412  0.79019837  0.66581424     0.34200
O522        O  0.76977189  0.77415507  0.68761556    -1.29700
C523        C  0.50594440  0.37225612  0.25405805     0.81600
N524        N  0.53668710  0.34581955  0.25290873    -0.76800
C525        C  0.57488446  0.35851993  0.25677188     0.84000
N526        N  0.58249004  0.39831432  0.26222664    -0.76700
C527        C  0.55200351  0.42507290  0.26386190     0.84100
N528        N  0.51376660  0.41175040  0.25969713    -0.78400
C529        C  0.57397227  0.17127253  0.13266316     0.81600
N530        N  0.57431610  0.17405318  0.09230248    -0.76800
C531        C  0.53974309  0.17686026  0.07119300     0.84000
N532        N  0.50407982  0.17743536  0.09109521    -0.76700
C533        C  0.50391868  0.17449646  0.13194395     0.84100
N534        N  0.53882861  0.17155226  0.15203603    -0.78400
O535        O  0.83457201  0.21984557  0.11484771    -0.85200
O536        O  0.88269204  0.26316959  0.33375956    -0.85300
O537        O  0.88918268  0.32098370  0.20318214    -0.87000
O538        O  0.91987286  0.19532899  0.21589277    -0.85700
O539        O  0.88822419  0.13965608  0.24223996    -0.85300
O540        O  0.83197397  0.35828926  0.20658315    -0.86700
O541        O  0.91798256  0.26516035  0.27493428    -0.85200
O542        O  0.88874679  0.24823082  0.14575472    -0.84800
Zr543      Zr  0.87400493  0.25041368  0.21833554     2.84300
O544        O  0.85500064  0.21260731  0.27535251    -1.06800
O545        O  0.81792910  0.26921973  0.18226716    -1.07500
C546        C  0.86971208  0.23557178  0.11445824     1.08000
C547        C  0.91536604  0.26722122  0.31342027     1.07900
C548        C  0.87003968  0.35461746  0.20151116     1.10900
C549        C  0.91850647  0.15825012  0.22694390     1.08700
H550        H  0.84894896  0.31120736  0.27043795     0.34200
O551        O  0.83413595  0.28830304  0.26086338    -1.27700
H552        H  0.85509446  0.17597038  0.18163305     0.33900
O553        O  0.83935770  0.19233644  0.19899550    -1.29400
O554        O  0.75303771  0.24562331  0.35993066    -0.85200
O555        O  0.71539857  0.19201620  0.14543214    -0.86600
O556        O  0.77702831  0.35137539  0.28260484    -0.85200
O557        O  0.83778194  0.13849753  0.32468464    -0.85300
O558        O  0.81214191  0.10599089  0.20608352    -0.85000
O559        O  0.75964347  0.32289900  0.15339590    -0.84800
O560        O  0.67561189  0.27466224  0.25469546    -0.85200
O561        O  0.70691371  0.14424942  0.27380963    -0.84600
O562        O  0.71118956  0.32943657  0.23184844    -0.85700
O563        O  0.76643778  0.11019631  0.27365807    -0.84900
O564        O  0.80216422  0.31664297  0.33674433    -0.85200
O565        O  0.75989669  0.26315391  0.11987109    -0.85000
O566        O  0.78618980  0.13886532  0.15140137    -0.84600
O567        O  0.82947062  0.19466466  0.36231637    -0.85000
O568        O  0.69883320  0.22349841  0.32423676    -0.85300
O569        O  0.67732872  0.19516521  0.20199191    -0.86700
Zr570      Zr  0.81261397  0.24920056  0.31621831     2.83100
Zr571      Zr  0.78253884  0.21123438  0.16410643     2.83500
Zr572      Zr  0.77917213  0.30939166  0.22312323     2.84100
Zr573      Zr  0.81931629  0.15627134  0.25613396     2.83400
Zr574      Zr  0.72053345  0.21543998  0.25698447     2.84200
O575        O  0.76253266  0.17500437  0.21985284    -1.07200
O576        O  0.75794537  0.27069900  0.27804215    -1.06700
C577        C  0.71569370  0.23555971  0.35629192     1.07900
C578        C  0.68214865  0.18879348  0.16432913     1.10500
C579        C  0.78688649  0.34775668  0.31988205     1.08100
C580        C  0.83731434  0.15703645  0.35824023     1.08500
C581        C  0.79716779  0.10683278  0.17085239     1.08000
C582        C  0.75443523  0.30112086  0.12199832     1.07600
C583        C  0.67917806  0.31237173  0.24460623     1.08000
C584        C  0.72835689  0.11199656  0.27755253     1.07500
H585        H  0.71935827  0.26189360  0.18692930     0.34200
O586        O  0.74220893  0.25315687  0.20217083    -1.28300
H587        H  0.76691693  0.17821324  0.31764674     0.34200
O588        O  0.77598355  0.19394716  0.29505189    -1.29700
C589        C  0.48612008  0.37192312  0.76919304     0.81600
N590        N  0.51569074  0.34438071  0.76565394    -0.76800
C591        C  0.55423812  0.35574142  0.76619506     0.84000
N592        N  0.56352311  0.39487713  0.77120131    -0.76700
C593        C  0.53468742  0.42264697  0.77542323     0.84100
N594        N  0.49558743  0.41128800  0.77412953    -0.78400
C595        C  0.49853206  0.19077550  0.89008071     0.81600
N596        N  0.53686063  0.19435522  0.87745914    -0.76800
C597        C  0.56775007  0.19480847  0.90386039     0.84000
N598        N  0.55982926  0.19172610  0.94350020    -0.76700
C599        C  0.52155855  0.18803195  0.95693114     0.84100
N600        N  0.49095582  0.18770616  0.93002202    -0.78400
C601        C  0.66527600  0.25415184  0.53013248     0.81600
N602        N  0.68855786  0.25566022  0.49739605    -0.76800
C603        C  0.67297816  0.24923909  0.46100490     0.84000
N604        N  0.63315092  0.24190990  0.45723761    -0.76700
C605        C  0.60922006  0.24092827  0.49004787     0.84100
N606        N  0.62554415  0.24662979  0.52669813    -0.78400
C607        C  0.83873752  0.12096627  0.46763547     0.81600
N608        N  0.83594483  0.08063180  0.46457700    -0.76800
C609        C  0.83108829  0.05665454  0.49728309     0.84000
N610        N  0.82831825  0.07381119  0.53443298    -0.76700
C611        C  0.83085766  0.11498279  0.53758909     0.84100
N612        N  0.83601667  0.13770654  0.50400164    -0.78400
O613        O  0.81392547  0.23770881  0.88117160    -0.85200
O614        O  0.85837410  0.26816202  0.65607372    -0.85300
O615        O  0.90311072  0.20546495  0.77445020    -0.87000
O616        O  0.86960809  0.32973691  0.78284893    -0.85700
O617        O  0.81032851  0.36371882  0.77851306    -0.85300
O618        O  0.87063842  0.14715412  0.75820672    -0.86700
O619        O  0.89717021  0.27166596  0.71263884    -0.85200
O620        O  0.86987988  0.25492692  0.84490736    -0.84800
Zr621      Zr  0.85445997  0.25902986  0.77263033     2.84300
O622        O  0.81321132  0.29411901  0.72812111    -1.06800
O623        O  0.81697255  0.20633727  0.80090525    -1.07500
C624        C  0.85103251  0.24710632  0.87806693     1.08000
C625        C  0.89195755  0.27287072  0.67403809     1.07900
C626        C  0.90235483  0.16760870  0.76721202     1.10900
C627        C  0.84827424  0.36192427  0.78381612     1.08700
H628        H  0.85620790  0.20639317  0.70662044     0.34200
O629        O  0.83368833  0.21689805  0.72102454    -1.27700
H630        H  0.80703987  0.29957011  0.82855492     0.33900
O631        O  0.79837293  0.28178144  0.80775244    -1.29400
O632        O  0.73345165  0.24722199  0.63378266    -0.85200
O633        O  0.68910753  0.21352832  0.85227183    -0.86600
O634        O  0.81160182  0.13693584  0.68251196    -0.85200
O635        O  0.76383197  0.35905845  0.70515434    -0.85300
O636        O  0.74064071  0.34329466  0.82847955    -0.85000
O637        O  0.79764030  0.12556204  0.81237271    -0.84800
O638        O  0.68800065  0.14729055  0.72660445    -0.85200
O639        O  0.65367369  0.27597915  0.74073705    -0.84600
O640        O  0.74772634  0.11484374  0.73585205    -0.85700
O641        O  0.68934743  0.33359155  0.75305969    -0.84900
O642        O  0.80652575  0.19044657  0.63890934    -0.85200
O643        O  0.77038378  0.16247206  0.86275531    -0.85000
O644        O  0.74180479  0.28999448  0.87234851    -0.84600
O645        O  0.78545080  0.32256022  0.65188742    -0.85000
O646        O  0.67943935  0.22438554  0.66955122    -0.85300
O647        O  0.65577743  0.20624433  0.79293634    -0.86700
Zr648      Zr  0.79141398  0.25209412  0.67679590     2.83100
Zr649      Zr  0.75960297  0.22921742  0.83487730     2.83500
Zr650      Zr  0.79923457  0.16313392  0.74969102     2.84100
Zr651      Zr  0.75786361  0.31649827  0.76333370     2.83400
Zr652      Zr  0.70082103  0.21983685  0.73844128     2.84200
O653        O  0.71966610  0.26367041  0.78951089    -1.07200
O654        O  0.75730518  0.19732221  0.70484180    -1.06700
C655        C  0.69650706  0.23660724  0.63723523     1.07900
C656        C  0.65722333  0.20668852  0.83127211     1.10500
C657        C  0.81211735  0.15251285  0.64688936     1.08100
C658        C  0.77502907  0.35583619  0.66871471     1.08500
C659        C  0.73744756  0.32788306  0.86385891     1.08000
C660        C  0.78555096  0.13016708  0.84862857     1.07600
C661        C  0.71019523  0.11534046  0.72797376     1.08000
C662        C  0.65691718  0.31421972  0.74645313     1.07500
H663        H  0.72731438  0.16270273  0.79498103     0.34200
O664        O  0.74184074  0.18520896  0.78363325    -1.28300
H665        H  0.71912735  0.29070246  0.69417223     0.34200
O666        O  0.73603185  0.27514595  0.71176593    -1.29700
O667        O  0.23778493  0.21774780  0.13878568    -0.85200
O668        O  0.21345093  0.27014191  0.35451560    -0.85300
O669        O  0.16563414  0.19110687  0.25126451    -0.87000
O670        O  0.19589225  0.32034908  0.22707426    -0.85700
O671        O  0.25633117  0.35259346  0.21914526    -0.85300
O672        O  0.20236593  0.13701431  0.27329869    -0.86700
O673        O  0.17050336  0.26607134  0.30143161    -0.85200
O674        O  0.18482747  0.23870023  0.17624395    -0.82400
Zr675      Zr  0.21079328  0.24961735  0.24257515     2.84300
O676        O  0.25799867  0.29018809  0.27437616    -1.06800
O677        O  0.24422855  0.19289677  0.21944767    -1.07500
C678        C  0.20090626  0.22711840  0.14353681     1.08000
C679        C  0.17807993  0.27108671  0.33896610     1.07900
C680        C  0.16974508  0.15412522  0.26347686     1.10900
C681        C  0.21779812  0.35175858  0.21988303     1.08700
H682        H  0.21566553  0.20383959  0.31380192     0.34200
O683        O  0.23661724  0.21263790  0.29610913    -1.27700
H684        H  0.25359120  0.28432587  0.17727345     0.33900
O685        O  0.26397968  0.26936660  0.19987232    -1.29400
O686        O  0.33724992  0.25028669  0.37321790    -0.85200
O687        O  0.36216862  0.19297304  0.15418123    -0.86600
O688        O  0.26027426  0.14081474  0.34414509    -0.85200
O689        O  0.31087096  0.35880536  0.28250364    -0.85300
O690        O  0.32315700  0.32201332  0.15962383    -0.85000
O691        O  0.26587420  0.11025485  0.21481734    -0.84800
O692        O  0.38164241  0.13978600  0.28503464    -0.85200
O693        O  0.41629163  0.26366739  0.25924821    -0.84600
O694        O  0.32098169  0.10790153  0.28842761    -0.85700
O695        O  0.38486109  0.32162358  0.23811573    -0.84900
O696        O  0.26736061  0.20003256  0.37781626    -0.85200
O697        O  0.28091489  0.14659660  0.15818220    -0.85000
O698        O  0.31479438  0.26176613  0.12875936    -0.84600
O699        O  0.28772497  0.32734566  0.33941222    -0.85000
O700        O  0.38853395  0.21898594  0.34061709    -0.85300
O701        O  0.40423807  0.19348148  0.20832145    -0.86700
Zr702      Zr  0.28058627  0.25449425  0.32982783     2.83100
Zr703      Zr  0.29736415  0.21248008  0.17884589     2.83500
Zr704      Zr  0.27020348  0.15585293  0.27284760     2.84100
Zr705      Zr  0.31228924  0.30778140  0.23241213     2.83400
Zr706      Zr  0.36758723  0.21155107  0.26932404     2.84200
O707        O  0.34441924  0.24932014  0.21376778    -1.07200
O708        O  0.31333016  0.19590579  0.30965155    -1.06700
C709        C  0.37201543  0.23433939  0.37210304     1.07900
C710        C  0.39674810  0.18924800  0.17052774     1.10500
C711        C  0.26121385  0.16170626  0.37642734     1.08100
C712        C  0.29857653  0.35879976  0.31877320     1.08500
C713        C  0.32208487  0.29959491  0.12810991     1.08000
C714        C  0.27072187  0.11427532  0.17647680     1.07600
C715        C  0.35915849  0.10827283  0.29039618     1.08000
C716        C  0.41615522  0.30074005  0.24801501     1.07500
H717        H  0.33597921  0.14994444  0.22106682     0.34200
O718        O  0.32309620  0.17344583  0.23147618    -1.28300
H719        H  0.35339531  0.28762573  0.30378631     0.34200
O720        O  0.33513735  0.27111530  0.28884590    -1.29700
C721        C  0.82611419  0.13819257  0.57536609    -0.15100
C722        C  0.81904082  0.12429832  0.61272019    -0.30300
H723        H  0.82787754  0.17056672  0.57127903     0.13900
H724        H  0.81788271  0.09212998  0.61833540     0.14500
C725        C  0.68488791  0.25786883  0.56862805    -0.15100
C726        C  0.67165628  0.23872910  0.60130295    -0.30300
H727        H  0.71379576  0.27275761  0.56874667     0.13900
H728        H  0.64306852  0.22326583  0.60115673     0.14500
C729        C  0.60971532  0.19926547  0.88957926    -0.15100
C730        C  0.61787691  0.19949915  0.85030801    -0.30300
H731        H  0.63360260  0.20292056  0.91116037     0.13900
H732        H  0.59329773  0.19526536  0.82957589     0.14500
C733        C  0.58580108  0.32634412  0.75903179    -0.15100
C734        C  0.62147831  0.33929560  0.74661186    -0.30300
H735        H  0.58023986  0.29465887  0.76491102     0.13900
H736        H  0.62633744  0.37117198  0.74097085     0.14500
C737        C  0.70043491  0.24894721  0.42682838    -0.15100
C738        C  0.68869138  0.23753111  0.39072456    -0.30300
H739        H  0.73142012  0.25707357  0.43194889     0.13900
H740        H  0.65775938  0.22886874  0.38601754     0.14500
C741        C  0.84400062  0.13226342  0.39462032    -0.15100
C742        C  0.84092601  0.14710609  0.43164380    -0.30300
H743        H  0.84806633  0.10020753  0.39079086     0.13900
H744        H  0.83720069  0.17917846  0.43565119     0.14500
C745        C  0.54342038  0.18086556  0.02714733    -0.15100
C746        C  0.51331036  0.18409142  0.00061816    -0.30300
H747        H  0.57382166  0.18112422  0.01600601     0.13900
H748        H  0.48261918  0.18343172  0.01087166     0.14500
C749        C  0.46771807  0.17759650  0.15674243    -0.15100
C750        C  0.43036257  0.18100384  0.14306063    -0.30300
H751        H  0.47278764  0.17854123  0.18875595     0.13900
H752        H  0.42462519  0.17986456  0.11118336     0.14500
C753        C  0.64686448  0.17880903  0.14003481    -0.15100
C754        C  0.61092854  0.17247965  0.15641415    -0.30300
H755        H  0.65005675  0.17944742  0.10777715     0.13900
H756        H  0.60789314  0.17161102  0.18868317     0.14500
C757        C  0.46417114  0.35805335  0.25039336    -0.15100
C758        C  0.45621127  0.31883404  0.24664111    -0.30300
H759        H  0.43998893  0.37948350  0.25269075     0.13900
H760        H  0.48082008  0.29770979  0.24576173     0.14500
C761        C  0.60745168  0.32869398  0.25496088    -0.15100
C762        C  0.64511419  0.34005869  0.24799953    -0.30300
H763        H  0.60008829  0.29700071  0.25774336     0.13900
H764        H  0.65154995  0.37181726  0.24345664     0.14500
C765        C  0.90750531  0.40547479  0.79029942    -0.15100
C766        C  0.86785403  0.40051408  0.79078789    -0.30300
H767        H  0.92715800  0.37989782  0.78694820     0.13900
H768        H  0.84847005  0.42638043  0.79374987     0.14500
C769        C  0.88915171  0.55035457  0.78681495    -0.15100
C770        C  0.90168402  0.58852679  0.78482003    -0.30300
H771        H  0.85744134  0.54366656  0.78534233     0.13900
H772        H  0.93335591  0.59523036  0.78684557     0.14500
C773        C  0.78456774  0.40215395  0.60862713    -0.15100
C774        C  0.77645738  0.39504560  0.64733908    -0.30300
H775        H  0.78939441  0.37739226  0.58850026     0.13900
H776        H  0.77027135  0.42068985  0.66602747     0.14500
C777        C  0.78809867  0.54730150  0.63528525    -0.15100
C778        C  0.79381254  0.58618943  0.62512990    -0.30300
H779        H  0.78446973  0.53910379  0.66654899     0.13900
H780        H  0.79869452  0.59396160  0.59392619     0.14500
C781        C  0.62198427  0.76355790  0.86981229    -0.15100
C782        C  0.63216951  0.77063598  0.83172294    -0.30300
H783        H  0.64432136  0.75455923  0.89163419     0.13900
H784        H  0.60913297  0.77999845  0.81071952     0.14500
C785        C  0.52132876  0.49511876  0.77676399    -0.15100
C786        C  0.54721954  0.46485734  0.77703804    -0.30300
H787        H  0.48951885  0.48892166  0.77824411     0.13900
H788        H  0.57898777  0.47112902  0.77508038     0.14500
C789        C  0.62604584  0.59728492  0.75171784    -0.15100
C790        C  0.63637892  0.63039112  0.73092689    -0.30300
H791        H  0.64851050  0.57985247  0.76755003     0.13900
H792        H  0.61306389  0.64680757  0.71516312     0.14500
C793        C  0.83048315  0.98279902  0.51656748    -0.15100
C794        C  0.82799319  0.01265361  0.48935461    -0.30300
H795        H  0.83376440  0.99029491  0.54782853     0.13900
H796        H  0.82548921  0.00449038  0.45816495     0.14500
C797        C  0.83527948  0.84073019  0.55940704    -0.15100
C798        C  0.83621147  0.85069931  0.59808385    -0.30300
H799        H  0.83223357  0.80942384  0.55125405     0.13900
H800        H  0.83879852  0.88213955  0.60596114     0.14500
C801        C  0.69267124  0.70241008  0.55935035    -0.15100
C802        C  0.68593557  0.72481378  0.59110208    -0.30300
H803        H  0.72182412  0.68926550  0.55445553     0.13900
H804        H  0.65676425  0.73854078  0.59456419     0.14500
C805        C  0.69586648  0.71868315  0.41284090    -0.15100
C806        C  0.65831651  0.70687841  0.41943291    -0.30300
H807        H  0.71628837  0.72308312  0.43765460     0.13900
H808        H  0.63765719  0.70217581  0.39491861     0.14500
C809        C  0.82483471  0.83261139  0.40747379    -0.15100
C810        C  0.82238651  0.87220074  0.41616015    -0.30300
H811        H  0.83186171  0.81163745  0.43156274     0.13900
H812        H  0.81538600  0.89385674  0.39270317     0.14500
C813        C  0.51912882  0.77314306  0.97468024    -0.15100
C814        C  0.54638683  0.78188738  0.00244318    -0.30300
H815        H  0.48818481  0.76839709  0.98307154     0.13900
H816        H  0.57705534  0.78702395  0.99319005     0.14500
C817        C  0.60755319  0.78563217  0.13098414    -0.15100
C818        C  0.61285920  0.77308738  0.16860566    -0.30300
H819        H  0.63375098  0.79359034  0.11350054     0.13900
H820        H  0.58695912  0.76454722  0.18626497     0.14500
C821        C  0.53064842  0.49499593  0.27294757    -0.15100
C822        C  0.56046569  0.46830079  0.27067204    -0.30300
H823        H  0.50011443  0.48451750  0.26959672     0.13900
H824        H  0.59118063  0.47810992  0.27412515     0.14500
C825        C  0.60992804  0.62079286  0.29154011    -0.15100
C826        C  0.63750572  0.61688096  0.26320497    -0.30300
H827        H  0.61113986  0.64652503  0.31109124     0.13900
H828        H  0.63584178  0.59176201  0.24290298     0.14500
C829        C  0.91521838  0.57526051  0.20732592    -0.15100
C830        C  0.87857485  0.58663313  0.19564966    -0.30300
H831        H  0.93515996  0.59680430  0.22109138     0.13900
H832        H  0.85945824  0.56410167  0.18220139     0.14500
C833        C  0.88318640  0.42945335  0.19772247    -0.15100
C834        C  0.89534977  0.39090077  0.19504128    -0.30300
H835        H  0.85178927  0.43614036  0.20167439     0.13900
H836        H  0.92691554  0.38506597  0.19091193     0.14500
C837        C  0.77840268  0.49993425  0.49578331    -0.15100
C838        C  0.77521758  0.47055350  0.46876848    -0.30300
H839        H  0.77655654  0.53110135  0.48604966     0.13900
H840        H  0.77701810  0.43949607  0.47893253     0.14500
C841        C  0.75592104  0.55584527  0.34657743    -0.15100
C842        C  0.78590664  0.58198267  0.34907202    -0.30300
H843        H  0.73336995  0.55975813  0.32350820     0.13900
H844        H  0.80882365  0.57803436  0.37176347     0.14500
C845        C  0.75898626  0.41334675  0.33616391    -0.15100
C846        C  0.78027685  0.38120876  0.34662082    -0.30300
H847        H  0.74636911  0.41616574  0.30636365     0.13900
H848        H  0.79351396  0.37913671  0.37621836     0.14500
C849        C  0.48263045  0.63231279  0.74552450    -0.15100
C850        C  0.44444881  0.61973917  0.74551963    -0.30300
H851        H  0.48985663  0.66392095  0.74160554     0.13900
H852        H  0.43796960  0.58797747  0.74980008     0.14500
C853        C  0.44179942  0.77278007  0.84395837    -0.15100
C854        C  0.47962949  0.76515597  0.83398123    -0.30300
H855        H  0.43537614  0.78327440  0.87382747     0.13900
H856        H  0.48688992  0.75466554  0.80434154     0.14500
C857        C  0.05014752  0.46219384  0.78291609    -0.15100
C858        C  0.02472370  0.49346128  0.78321259    -0.30300
H859        H  0.03885745  0.43159795  0.78362540     0.13900
H860        H  0.03607417  0.52403905  0.78196467     0.14500
C861        C  0.16379722  0.55325872  0.78884874    -0.15100
C862        C  0.20136654  0.56160189  0.79897125    -0.30300
H863        H  0.14366423  0.57748271  0.78058231     0.13900
H864        H  0.22115570  0.53699615  0.80706660     0.14500
C865        C  0.31671858  0.53587907  0.65960848    -0.15100
C866        C  0.29442474  0.56765699  0.64963803    -0.30300
H867        H  0.33081046  0.53331940  0.68874476     0.13900
H868        H  0.27952198  0.56909403  0.62080873     0.14500
C869        C  0.23098490  0.84663935  0.58373997    -0.15100
C870        C  0.22738618  0.80788115  0.59412896    -0.30300
H871        H  0.23962786  0.86870172  0.60570565     0.13900
H872        H  0.21846782  0.78659535  0.57144036     0.14500
C873        C  0.52338306  0.69669141  0.48976828    -0.15100
C874        C  0.55141275  0.69704424  0.51850208    -0.30300
H875        H  0.53212171  0.69564077  0.45861758     0.13900
H876        H  0.54289113  0.69770422  0.54973063     0.14500
C877        C  0.41102512  0.71005889  0.58248509    -0.15100
C878        C  0.37157544  0.71094820  0.58834621    -0.30300
H879        H  0.43173625  0.71317399  0.60722647     0.13900
H880        H  0.35115682  0.70678587  0.56350230     0.14500
C881        C  0.44433341  0.35854162  0.76537554    -0.15100
C882        C  0.43742421  0.32305659  0.74829139    -0.30300
H883        H  0.42021841  0.37633838  0.77738511     0.13900
H884        H  0.46223931  0.30648146  0.73585173     0.14500
C885        C  0.42704712  0.18852506  0.86903224    -0.15100
C886        C  0.46600886  0.19109544  0.85968966    -0.30300
H887        H  0.41859738  0.18537039  0.90019151     0.13900
H888        H  0.47456285  0.19487182  0.82861537     0.14500
C889        C  0.30559077  0.36102918  0.62678546    -0.15100
C890        C  0.32507920  0.39346430  0.63994325    -0.30300
H891        H  0.29148241  0.36123793  0.59758339     0.13900
H892        H  0.33898250  0.39241572  0.66927387     0.14500
C893        C  0.18655628  0.40707652  0.77315442    -0.15100
C894        C  0.17374840  0.36865776  0.77005432    -0.30300
H895        H  0.21829157  0.41352355  0.77165388     0.13900
H896        H  0.14197462  0.36240762  0.77172507     0.14500
C897        C  0.22867325  0.98227210  0.51025778    -0.15100
C898        C  0.22657990  0.95426999  0.48184361    -0.30300
H899        H  0.22742706  0.97288858  0.54140973     0.13900
H900        H  0.22784451  0.96309476  0.45055847     0.14500
C901        C  0.24956727  0.11535075  0.56573294    -0.15100
C902        C  0.25104678  0.10107560  0.60349781    -0.30300
H903        H  0.25346121  0.14726284  0.55978751     0.13900
H904        H  0.24736045  0.06915092  0.60954864     0.14500
C905        C  0.24953904  0.10107597  0.42046838    -0.15100
C906        C  0.25515997  0.14105650  0.41550686    -0.30300
H907        H  0.24874697  0.08173048  0.39468319     0.13900
H908        H  0.25590282  0.16003633  0.44159984     0.14500
C909        C  0.53958030  0.23247800  0.51552903    -0.15100
C910        C  0.56593040  0.23369313  0.48506942    -0.30300
H911        H  0.54986382  0.23618881  0.54600301     0.13900
H912        H  0.55539500  0.22983757  0.45469948     0.14500
C913        C  0.39971877  0.22171016  0.56525150    -0.15100
C914        C  0.40892379  0.21771557  0.60434956    -0.30300
H915        H  0.36852948  0.22346439  0.55662793     0.13900
H916        H  0.44006937  0.21503710  0.61293325     0.14500
C917        C  0.42841256  0.22114027  0.42069849    -0.15100
C918        C  0.39148309  0.23353693  0.41182681    -0.30300
H919        H  0.44853617  0.21210805  0.39716227     0.13900
H920        H  0.37311735  0.24423422  0.43616491     0.14500
C921        C  0.43571242  0.61365532  0.26467706    -0.15100
C922        C  0.46745304  0.62519791  0.28592604    -0.30300
H923        H  0.43465113  0.58400065  0.25157774     0.13900
H924        H  0.46887251  0.65508462  0.29844482     0.14500
C925        C  0.45724366  0.77508995  0.12098228    -0.15100
C926        C  0.44998185  0.77330515  0.16057296    -0.30300
H927        H  0.43232187  0.77223432  0.10046419     0.13900
H928        H  0.47528151  0.77565802  0.18072451     0.14500
C929        C  0.39743032  0.70594339  0.40293281    -0.15100
C930        C  0.38560837  0.69812902  0.44027753    -0.30300
H931        H  0.42894165  0.71086507  0.39694648     0.13900
H932        H  0.35408072  0.69481433  0.44703266     0.14500
C933        C  0.23391771  0.81238413  0.44179271    -0.15100
C934        C  0.23880414  0.82370734  0.40367241    -0.30300
H935        H  0.23687194  0.78100178  0.45047139     0.13900
H936        H  0.23598043  0.85539168  0.39596155     0.14500
C937        C  0.05172810  0.50062383  0.20804874    -0.15100
C938        C  0.02230999  0.47331439  0.20695397    -0.30300
H939        H  0.04451679  0.53239471  0.20716650     0.13900
H940        H  0.02954506  0.44154610  0.20717735     0.14500
C941        C  0.18254679  0.58079463  0.19833561    -0.15100
C942        C  0.19201537  0.54247437  0.20631850    -0.30300
H943        H  0.15209792  0.58830025  0.19001799     0.13900
H944        H  0.22229646  0.53466395  0.21492165     0.14500
C945        C  0.15985431  0.39938897  0.21679332    -0.15100
C946        C  0.19889892  0.39110169  0.21260490    -0.30300
H947        H  0.13858904  0.37566854  0.22380292     0.13900
H948        H  0.21941508  0.41540499  0.20522100     0.14500
C949        C  0.29116439  0.45887052  0.49951133    -0.15100
C950        C  0.30109174  0.48711188  0.52539160    -0.30300
H951        H  0.28914566  0.42775065  0.50952648     0.13900
H952        H  0.30270784  0.51831504  0.51559802     0.14500
C953        C  0.28530198  0.55220745  0.38302336    -0.15100
C954        C  0.28853524  0.55932503  0.34348471    -0.30300
H955        H  0.28412888  0.57731542  0.40329809     0.13900
H956        H  0.29099451  0.53392309  0.32366832     0.14500
C957        C  0.27407843  0.40400994  0.36985545    -0.15100
C958        C  0.29636585  0.39840052  0.33751160    -0.30300
H959        H  0.25787202  0.37886029  0.38310561     0.13900
H960        H  0.31333635  0.42325210  0.32467399     0.14500
C961        C  0.10533758  0.27387366  0.35572353    -0.15100
C962        C  0.14394936  0.27634000  0.36713095    -0.30300
H963        H  0.09849484  0.27041631  0.32426502     0.13900
H964        H  0.15088368  0.27987123  0.39855644     0.14500
C965        C  0.95969391  0.26984165  0.37444513    -0.15100
C966        C  0.95384576  0.27389556  0.33464247    -0.30300
H967        H  0.93454022  0.26346520  0.39391329     0.13900
H968        H  0.97943856  0.28020010  0.31572668     0.14500
C969        C  0.10119985  0.13289272  0.24885395    -0.15100
C970        C  0.13563486  0.12725789  0.26743983    -0.30300
H971        H  0.09580294  0.16016166  0.23152934     0.13900
H972        H  0.14022157  0.09983645  0.28484770     0.14500
C973        C  0.95556270  0.13658469  0.22291479    -0.15100
C974        C  0.96125723  0.10055711  0.23990304    -0.30300
H975        H  0.98043060  0.15312832  0.20980517     0.13900
H976        H  0.93666896  0.08320458  0.25238829     0.14500
C977        C  0.97562926  0.69080674  0.33462077    -0.15100
C978        C  0.93708028  0.69264352  0.34546956    -0.30300
H979        H  0.98379901  0.69500303  0.30351254     0.13900
H980        H  0.92995234  0.68818720  0.37684763     0.14500
C981        C  0.11886075  0.68264271  0.37113231    -0.15100
C982        C  0.13097402  0.67281370  0.33485456    -0.30300
H983        H  0.14011344  0.69390612  0.39282270     0.13900
H984        H  0.10904952  0.66167118  0.31371169     0.14500
C985        C  0.02578690  0.96735282  0.27688195    -0.15100
C986        C  0.05537473  0.99459434  0.27557972    -0.30300
H987        H  0.99486765  0.97692762  0.27555084     0.13900
H988        H  0.08634377  0.98518143  0.27666018     0.14500
C989        C  0.93536864  0.84753325  0.25144789    -0.15100
C990        C  0.97317228  0.83319046  0.25205345    -0.30300
H991        H  0.93034813  0.87919608  0.25673622     0.13900
H992        H  0.97850388  0.80140193  0.24776475     0.14500
C993        C  0.11945202  0.85596957  0.26823226    -0.15100
C994        C  0.12929241  0.82209630  0.25002384    -0.30300
H995        H  0.14225743  0.87372698  0.28291185     0.13900
H996        H  0.10590515  0.80550008  0.23483246     0.14500
C997        C  0.04861467  0.67133950  0.50250800    -0.15100
C998        C  0.01914820  0.67782070  0.47584498    -0.30300
H999        H  0.07877006  0.66590336  0.49215619     0.13900
H1000       H  0.98882684  0.68313873  0.48571252     0.14500
C1001       C  0.11410458  0.67918871  0.63040485    -0.15100
C1002       C  0.11931368  0.67987725  0.67011282    -0.30300
H1003       H  0.14047720  0.68065571  0.61165086     0.13900
H1004       H  0.09328126  0.67824066  0.68930958     0.14500
C1005       C  0.95674564  0.70217124  0.65656805    -0.15100
C1006       C  0.96381121  0.69118451  0.61905050    -0.30300
H1007       H  0.98205442  0.70554830  0.67658545     0.13900
H1008       H  0.93874104  0.68781293  0.59877495     0.14500
C1009       C  0.10910774  0.82519017  0.79562927    -0.15100
C1010       C  0.14207576  0.83456237  0.77547719    -0.30300
H1011       H  0.10481890  0.79494817  0.80745433     0.13900
H1012       H  0.14533826  0.86449506  0.76245920     0.14500
C1013       C  0.93734953  0.85133067  0.76421994    -0.15100
C1014       C  0.96760562  0.83877471  0.78723963    -0.30300
H1015       H  0.93826038  0.88080055  0.74993237     0.13900
H1016       H  0.96619288  0.80912386  0.80114402     0.14500
C1017       C  0.02007047  0.27179106  0.52037239    -0.15100
C1018       C  0.04979219  0.26999510  0.49322247    -0.30300
H1019       H  0.98954243  0.27457396  0.50983105     0.13900
H1020       H  0.08037995  0.26778669  0.50370243     0.14500
C1021       C  0.14207885  0.25024465  0.62725198    -0.15100
C1022       C  0.10602726  0.25794905  0.64302916    -0.30300
H1023       H  0.14588908  0.24925685  0.59512337     0.13900
H1024       H  0.10344405  0.25907165  0.67530469     0.14500
C1025       C  0.92637996  0.27823772  0.64657454    -0.15100
C1026       C  0.96444643  0.27448618  0.65803424    -0.30300
H1027       H  0.91983106  0.28180940  0.61495599     0.13900
H1028       H  0.97107092  0.27015518  0.68954631     0.14500
C1029       C  0.05304725  0.96094230  0.77880090    -0.15100
C1030       C  0.02204566  0.98494702  0.77051095    -0.30300
H1031       H  0.08272613  0.97367531  0.78200947     0.13900
H1032       H  0.99254469  0.97163201  0.76780161     0.14500
C1033       C  0.13148385  0.10315958  0.75402114    -0.15100
C1034       C  0.09384645  0.11723642  0.75685340    -0.30300
H1035       H  0.13632081  0.07093504  0.75422551     0.13900
H1036       H  0.08927736  0.14950305  0.75611477     0.14500
C1037       C  0.94676404  0.10812186  0.76312316    -0.15100
C1038       C  0.94171606  0.14753176  0.76865168    -0.30300
H1039       H  0.92085877  0.08896431  0.75881141     0.13900
H1040       H  0.96771338  0.16625150  0.77412440     0.14500
C1041       C  0.37617404  0.06819397  0.29863058    -0.15100
C1042       C  0.41455463  0.05827724  0.29482724    -0.30300
H1043       H  0.35478765  0.04457011  0.30581220     0.13900
H1044       H  0.43667306  0.08126799  0.28805319     0.14500
C1045       C  0.38315475  0.91314764  0.29577498    -0.15100
C1046       C  0.39401524  0.87434376  0.29805773    -0.30300
H1047       H  0.35218857  0.92089518  0.29013808     0.13900
H1048       H  0.42516667  0.86711482  0.30332873     0.14500
C1049       C  0.28042669  0.04394948  0.15884338    -0.15100
C1050       C  0.26593714  0.08007974  0.14976589    -0.30300
H1051       H  0.29037260  0.03736542  0.18911173     0.13900
H1052       H  0.25696862  0.08663284  0.11917076     0.14500
C1053       C  0.29961336  0.90326370  0.12820637    -0.15100
C1054       C  0.28624980  0.89378857  0.16464342    -0.30300
H1055       H  0.31099025  0.88037310  0.10852926     0.13900
H1056       H  0.27397876  0.91708260  0.18338556     0.14500
C1057       C  0.65598621  0.06572345  0.71042118    -0.15100
C1058       C  0.69363348  0.07485525  0.72065438    -0.30300
H1059       H  0.63395576  0.08931406  0.70684988     0.13900
H1060       H  0.71485928  0.05046726  0.72418575     0.14500
C1061       C  0.69092600  0.92188821  0.70656902    -0.15100
C1062       C  0.68124799  0.88282501  0.70310414    -0.30300
H1063       H  0.72144094  0.93042354  0.71344491     0.13900
H1064       H  0.65054580  0.87464884  0.69657515     0.14500
C1065       C  0.80526484  0.06126753  0.86309096    -0.15100
C1066       C  0.78744253  0.09477804  0.87540267    -0.30300
H1067       H  0.82181703  0.06162213  0.83524068     0.13900
H1068       H  0.77053985  0.09478422  0.90301948     0.14500
C1069       C  0.79683929  0.91863575  0.84317286    -0.15100
C1070       C  0.78356951  0.88229620  0.85418618    -0.30300
H1071       H  0.80923421  0.92402243  0.81363926     0.13900
H1072       H  0.77135493  0.87705516  0.88382173     0.14500
C1073       C  0.32822463  0.35497648  0.07579961    -0.15100
C1074       C  0.32849062  0.31606432  0.08695670    -0.30300
H1075       H  0.32615349  0.37788320  0.09842249     0.13900
H1076       H  0.33063796  0.29385124  0.06361173     0.14500
C1077       C  0.31574500  0.32377838  0.93132482    -0.15100
C1078       C  0.31400914  0.33435957  0.89221945    -0.30300
H1079       H  0.31262187  0.29237885  0.93994481     0.13900
H1080       H  0.31708772  0.36584950  0.88389671     0.14500
C1081       C  0.18994065  0.21554107  0.07265088    -0.15100
C1082       C  0.17530532  0.22561187  0.10836140    -0.30300
H1083       H  0.22066761  0.20585634  0.06949174     0.13900
H1084       H  0.14457226  0.23529947  0.11144275     0.14500
C1085       C  0.18292720  0.21522763  0.92856364    -0.15100
C1086       C  0.16816965  0.22497923  0.89241180    -0.30300
H1087       H  0.21299996  0.20341280  0.93121223     0.13900
H1088       H  0.13800986  0.23635449  0.88916676     0.14500
C1089       C  0.73679811  0.65377765  0.08561164    -0.15100
C1090       C  0.73665435  0.61441259  0.07632291    -0.30300
H1091       H  0.73382211  0.67537966  0.06120152     0.13900
H1092       H  0.73897428  0.59216289  0.10019142     0.14500
C1093       C  0.74747013  0.63814382  0.92893390    -0.15100
C1094       C  0.75015310  0.62384274  0.89126895    -0.30300
H1095       H  0.75056632  0.67008225  0.93425843     0.13900
H1096       H  0.74721588  0.59185394  0.88611875     0.14500
C1097       C  0.86909056  0.75980332  0.08687489    -0.15100
C1098       C  0.90711990  0.74943737  0.08042498    -0.30300
H1099       H  0.85022827  0.76852500  0.06181437     0.13900
H1100       H  0.92661899  0.74164646  0.10523939     0.14500
C1101       C  0.88271355  0.74062192  0.93680480    -0.15100
C1102       C  0.89507941  0.73727790  0.89905095    -0.30300
H1103       H  0.85105574  0.74278395  0.94321521     0.13900
H1104       H  0.92683293  0.73480440  0.89318037     0.14500
C1105       C  0.52194951  0.99019071  0.68848313    -0.15100
C1106       C  0.55145502  0.96309609  0.68877192    -0.30300
H1107       H  0.52909834  0.02195980  0.69019755     0.13900
H1108       H  0.54433934  0.93131078  0.68729600     0.14500
C1109       C  0.38307833  0.03081614  0.70510980    -0.15100
C1110       C  0.39503156  0.06750218  0.71641871    -0.30300
H1111       H  0.35150848  0.02357141  0.70356145     0.13900
H1112       H  0.42674119  0.07411791  0.71821106     0.14500
C1113       C  0.41493450  0.88763862  0.69367498    -0.15100
C1114       C  0.37600700  0.87837006  0.69172334    -0.30300
H1115       H  0.43684751  0.86450852  0.70012493     0.13900
H1116       H  0.35486987  0.90221772  0.68502573     0.14500
C1117       C  0.31273322  0.97434327  0.99386761    -0.15100
C1118       C  0.29604903  0.00125862  0.01814353    -0.30300
H1119       H  0.32794576  0.94861098  0.00704282     0.13900
H1120       H  0.28058773  0.02730860  0.00604547     0.14500
C1121       C  0.28507783  0.03281933  0.85848515    -0.15100
C1122       C  0.28677086  0.07137880  0.86900212    -0.30300
H1123       H  0.28013410  0.02535855  0.82739268     0.13900
H1124       H  0.29223870  0.07885384  0.89998212     0.14500
C1125       C  0.29960041  0.88847571  0.87956543    -0.15100
C1126       C  0.28910158  0.88232787  0.84167068    -0.30300
H1127       H  0.30767214  0.86341459  0.89899838     0.13900
H1128       H  0.28064248  0.90772488  0.82280334     0.14500
C1129       C  0.54908331  0.99114086  0.30615982    -0.15100
C1130       C  0.52324140  0.96033922  0.30429768    -0.30300
H1131       H  0.53734004  0.02137780  0.30850005     0.13900
H1132       H  0.53389335  0.92972506  0.30201063     0.14500
C1133       C  0.66985883  0.06815550  0.29116372    -0.15100
C1134       C  0.70910721  0.07292855  0.28598873    -0.30300
H1135       H  0.65044837  0.09419937  0.29067864     0.13900
H1136       H  0.72825967  0.04666845  0.28662174     0.14500
C1137       C  0.66897231  0.88280527  0.29790398    -0.15100
C1138       C  0.68145667  0.92123096  0.29598230    -0.30300
H1139       H  0.63748412  0.87638603  0.30228652     0.13900
H1140       H  0.71299362  0.92720017  0.29136080     0.14500
C1141       C  0.75308177  0.99952634  0.99782850    -0.15100
C1142       C  0.76314461  0.97017778  0.97331148    -0.30300
H1143       H  0.75012232  0.03003288  0.98628120     0.13900
H1144       H  0.76600606  0.93956801  0.98457236     0.14500
C1145       C  0.76323557  0.06194714  0.12478971    -0.15100
C1146       C  0.79138603  0.06751524  0.15236739    -0.30300
H1147       H  0.74553664  0.08724704  0.11424418     0.13900
H1148       H  0.80947476  0.04238365  0.16260658     0.14500
C1149       C  0.76422185  0.91277100  0.11785097    -0.15100
C1150       C  0.77271160  0.90698466  0.15674744    -0.30300
H1151       H  0.75890006  0.88697306  0.09909041     0.13900
H1152       H  0.77894815  0.93296268  0.17502930     0.14500
C1153       C  0.73028870  0.50220608  0.98053139    -0.15100
C1154       C  0.70819000  0.47738664  0.00287470    -0.30300
H1155       H  0.74755669  0.49056981  0.95588408     0.13900
H1156       H  0.69155680  0.48956770  0.02771595     0.14500
C1157       C  0.73107770  0.35792064  0.08046280    -0.15100
C1158       C  0.74203738  0.31968736  0.08426936    -0.30300
H1159       H  0.72947002  0.37696904  0.10645518     0.13900
H1160       H  0.74291423  0.30079726  0.05809470     0.14500
C1161       C  0.73179714  0.34536181  0.93550752    -0.15100
C1162       C  0.72918215  0.35650592  0.89685003    -0.30300
H1163       H  0.73909854  0.31429766  0.94251475     0.13900
H1164       H  0.72252106  0.38755824  0.88918944     0.14500
C1165       C  0.04156096  0.25873450  0.97857741    -0.15100
C1166       C  0.06626843  0.25443330  0.00942972    -0.30300
H1167       H  0.05276508  0.25678802  0.94826765     0.13900
H1168       H  0.05493250  0.25632944  0.03969665     0.14500
C1169       C  0.92474828  0.25315224  0.06671644    -0.15100
C1170       C  0.88776998  0.23942375  0.07407115    -0.30300
H1171       H  0.94395270  0.26108619  0.09154130     0.13900
H1172       H  0.86939029  0.23027418  0.04901469     0.14500
C1173       C  0.91168469  0.25731138  0.91800362    -0.15100
C1174       C  0.87279945  0.24900027  0.91633249    -0.30300
H1175       H  0.92802112  0.26276366  0.89047413     0.13900
H1176       H  0.85647404  0.24284652  0.94373772     0.14500
C1177       C  0.35022154  0.48927928  0.00198731    -0.15100
C1178       C  0.33485746  0.46420186  0.97498469    -0.30300
H1179       H  0.36242828  0.47638966  0.02936239     0.13900
H1180       H  0.32223257  0.47587693  0.94734034     0.14500
C1181       C  0.33366879  0.60450969  0.08433184    -0.15100
C1182       C  0.33186842  0.64379915  0.09062646    -0.30300
H1183       H  0.33144031  0.58329052  0.10915739     0.13900
H1184       H  0.33442984  0.66461624  0.06547364     0.14500
C1185       C  0.33552520  0.62741972  0.93943557    -0.15100
C1186       C  0.34073861  0.61740806  0.90116873    -0.30300
H1187       H  0.32719289  0.65807971  0.94615335     0.13900
H1188       H  0.34872961  0.58662877  0.89457541     0.14500
C1189       C  0.04847024  0.74112392  0.01733222    -0.15100
C1190       C  0.02064269  0.73721797  0.98849158    -0.30300
H1191       H  0.03937282  0.74641316  0.04788289     0.13900
H1192       H  0.02989703  0.73229799  0.95792525     0.14500
C1193       C  0.18978378  0.74478952  0.06219116    -0.15100
C1194       C  0.18038345  0.74640007  0.10063447    -0.30300
H1195       H  0.22090822  0.74277607  0.05348755     0.13900
H1196       H  0.14906697  0.74667317  0.10896850     0.14500
C1197       C  0.19857294  0.72826681  0.91557108    -0.15100
C1198       C  0.15930885  0.72494836  0.92253057    -0.30300
H1199       H  0.21898137  0.73454229  0.93995354     0.13900
H1200       H  0.13837054  0.71982192  0.89834982     0.14500
loop_ 
_geom_bond_atom_site_label_1 
_geom_bond_atom_site_label_2 
_geom_bond_distance 
_geom_bond_site_symmetry_2 
_ccdc_geom_bond_type 
C1            N2   1.353       .  A
C1            N6   1.356       .  A
C1         C1198   1.471       .  S
N2            C3   1.344   1_556  A
C3            N4   1.365       .  A
C3         C1193   1.478       .  S
N4            C5   1.366       .  A
C5            N6   1.362   1_554  A
C5         C1189   1.484       .  S
C7            N8   1.358       .  A
C7           N12   1.343       .  A
C7         C1181   1.469       .  S
N8            C9   1.358   1_554  A
C9           N10   1.375       .  A
C9         C1185   1.495       .  S
N10          C11   1.372   1_556  A
C11          N12   1.350       .  A
C11        C1177   1.477       .  S
C13          N14   1.358       .  A
C13          N18   1.368   1_554  A
C13        C1169   1.490       .  S
N14          C15   1.360   1_554  A
C15          N16   1.346       .  A
C15        C1165   1.465   1_655  S
N16          C17   1.349       .  A
C17          N18   1.368       .  A
C17        C1173   1.472       .  S
C19          N20   1.356   1_556  A
C19          N24   1.371       .  A
C19        C1161   1.492       .  S
N20          C21   1.357       .  A
C21          N22   1.343       .  A
C21        C1157   1.467       .  S
N22          C23   1.350       .  A
C23          N24   1.374   1_554  A
C23        C1154   1.469       .  S
C25          N26   1.361       .  A
C25          N30   1.367       .  A
C25        C1149   1.490       .  S
N26          C27   1.362       .  A
C27          N28   1.346   1_565  A
C27        C1141   1.465   1_554  S
N28          C29   1.346       .  A
C29          N30   1.364   1_545  A
C29        C1145   1.463       .  S
C31          N32   1.346       .  A
C31          N36   1.358   1_545  A
C31        C1133   1.478       .  S
N32          C33   1.353   1_545  A
C33          N34   1.370       .  A
C33        C1129   1.474       .  S
N34          C35   1.372       .  A
C35          N36   1.361       .  A
C35        C1138   1.489       .  S
C37          N38   1.354       .  A
C37          N42   1.368   1_565  A
C37        C1121   1.477   1_565  S
N38          C39   1.355       .  A
C39          N40   1.348       .  A
C39        C1125   1.471       .  S
N40          C41   1.355       .  A
C41          N42   1.366   1_565  A
C41        C1117   1.470       .  S
C43          N44   1.360       .  A
C43          N48   1.363       .  A
C43        C1113   1.485       .  S
N44          C45   1.363       .  A
C45          N46   1.356   1_565  A
C45        C1105   1.477       .  S
N46          C47   1.357   1_545  A
C47          N48   1.355       .  A
C47        C1109   1.481   1_565  S
C49          N50   1.359       .  A
C49          N54   1.358       .  A
C49        C1098   1.472       .  S
N50          C51   1.353   1_554  A
C51          N52   1.362       .  A
C51        C1101   1.482       .  S
N52          C53   1.361       .  A
C53          N54   1.360   1_556  A
C53        C1190   1.481   1_655  S
C55          N56   1.371       .  A
C55          N60   1.365       .  A
C55        C1090   1.509       .  S
N56          C57   1.369   1_554  A
C57          N58   1.352       .  A
C57        C1093   1.485       .  S
N58          C59   1.347       .  A
C59          N60   1.366   1_556  A
C59        C1153   1.475       .  S
C61          N62   1.361       .  A
C61          N66   1.355   1_556  A
C61        C1085   1.463       .  S
N62          C63   1.363   1_556  A
C63          N64   1.347       .  A
C63        C1166   1.461       .  S
N64          C65   1.349       .  A
C65          N66   1.350       .  A
C65        C1081   1.457       .  S
C67          N68   1.367   1_556  A
C67          N72   1.364       .  A
C67        C1077   1.496       .  S
N68          C69   1.367       .  A
C69          N70   1.358       .  A
C69        C1073   1.500       .  S
N70          C71   1.364   1_554  A
C71          N72   1.360       .  A
C71        C1178   1.490       .  S
C73          N74   1.352       .  A
C73          N78   1.347       .  A
C73        C1069   1.456       .  S
N74          C75   1.348       .  A
C75          N76   1.363   1_565  A
C75        C1142   1.466       .  S
N76          C77   1.361       .  A
C77          N78   1.352   1_545  A
C77        C1065   1.461       .  S
C79          N80   1.359       .  A
C79          N84   1.364   1_545  A
C79        C1057   1.490       .  S
N80          C81   1.363   1_545  A
C81          N82   1.357       .  A
C81        C1106   1.478       .  S
N82          C83   1.358       .  A
C83          N84   1.358       .  A
C83        C1061   1.486       .  S
C85          N86   1.367       .  A
C85          N90   1.348   1_545  A
C85        C1049   1.474       .  S
N86          C87   1.363   1_545  A
C87          N88   1.361       .  A
C87        C1118   1.484   1_565  S
N88          C89   1.350       .  A
C89          N90   1.354       .  A
C89        C1053   1.468       .  S
C91          N92   1.361       .  A
C91          N96   1.365       .  A
C91        C1045   1.487       .  S
N92          C93   1.363   1_565  A
C93          N94   1.352       .  A
C93        C1042   1.484       .  S
N94          C95   1.361   1_545  A
C95          N96   1.359       .  A
C95        C1130   1.488       .  S
C97          N98   1.349       .  A
C97         N102   1.362   1_655  A
C97        C1037   1.482       .  S
N98          C99   1.353   1_655  A
C99         N100   1.370       .  A
C99        C1030   1.479   1_545  S
N100        C101   1.371       .  A
C101        N102   1.365       .  A
C101       C1034   1.496       .  S
C103        N104   1.348   1_655  A
C103        N108   1.365       .  A
C103       C1026   1.488       .  S
N104        C105   1.353       .  A
C105        N106   1.367       .  A
C105       C1022   1.481       .  S
N106        C107   1.373       .  A
C107        N108   1.370   1_455  A
C107       C1017   1.500       .  S
C109        N110   1.362       .  A
C109        N114   1.346       .  A
C109       C1009   1.465       .  S
N110        C111   1.360       .  A
C111        N112   1.367       .  A
C111       C1029   1.487       .  S
N112        C113   1.361       .  A
C113        N114   1.348       .  A
C113       C1014   1.464   1_455  S
C115        N116   1.357       .  A
C115        N120   1.379       .  A
C115       C1006   1.492   1_455  S
N116        C117   1.353       .  A
C117        N118   1.351       .  A
C117        C997   1.468       .  S
N118        C119   1.353       .  A
C119        N120   1.374       .  A
C119       C1001   1.495       .  S
C121        N122   1.352       .  A
C121        N126   1.371       .  A
C121        C993   1.483       .  S
N122        C123   1.355       .  A
C123        N124   1.354       .  A
C123        C985   1.464       .  S
N124        C125   1.356       .  A
C125        N126   1.366       .  A
C125        C990   1.492   1_455  S
C127        N128   1.346       .  A
C127        N132   1.366       .  A
C127        C981   1.474       .  S
N128        C129   1.353       .  A
C129        N130   1.360   1_455  A
C129        C998   1.478       .  S
N130        C131   1.367   1_655  A
C131        N132   1.363       .  A
C131        C977   1.497   1_455  S
C133        N134   1.351       .  A
C133        N138   1.349       .  A
C133        C974   1.453   1_455  S
N134        C135   1.341       .  A
C135        N136   1.362       .  A
C135        C969   1.463       .  S
N136        C137   1.359       .  A
C137        N138   1.357       .  A
C137        C986   1.468   1_545  S
C139        N140   1.364       .  A
C139        N144   1.359       .  A
C139        C961   1.495       .  S
N140        C141   1.367       .  A
C141        N142   1.368       .  A
C141       C1018   1.500       .  S
N142        C143   1.366       .  A
C143        N144   1.362       .  A
C143        C965   1.497   1_455  S
C145        N146   1.367       .  A
C145        N150   1.365       .  A
C145        C953   1.492       .  S
N146        C147   1.363       .  A
C147        N148   1.345       .  A
C147        C957   1.461       .  S
N148        C149   1.344       .  A
C149        N150   1.365       .  A
C149        C949   1.469       .  S
C151        N152   1.362       .  A
C151        N156   1.359       .  A
C151        C945   1.485       .  S
N152        C153   1.366       .  A
C153        N154   1.357       .  A
C153        C937   1.478       .  S
N154        C155   1.357       .  A
C155        N156   1.351       .  A
C155        C942   1.475       .  S
O157       Zr193   2.488       .  S
O157        C168   1.302       .  A
O158       Zr192   2.488       .  S
O158        C169   1.302       .  A
O159       Zr165   2.413       .  S
O159        C170   1.284       .  A
O160       Zr165   2.383       .  S
O160        C171   1.279       .  A
O161       Zr195   2.489       .  S
O161        C171   1.301       .  A
O162       Zr194   2.449       .  S
O162        C170   1.293       .  A
O163       Zr165   2.377       .  S
O163        C169   1.279       .  A
O164       Zr165   2.382       .  S
O164        C168   1.279       .  A
Zr165       O166   2.334       .  S
Zr165       O167   2.315       .  S
Zr165       O175   2.326       .  S
Zr165       O173   2.316       .  S
O166       Zr192   2.343       .  S
O166       Zr195   2.332       .  S
O167       Zr193   2.362       .  S
O167       Zr194   2.332       .  S
C168       C1194   1.471       .  S
C169        C982   1.467       .  S
C170        C941   1.472       .  S
C171        C994   1.476       .  S
H172        O173   0.965       .  S
O173       Zr192   2.361       .  S
O173       Zr194   2.333       .  S
H174        O175   0.966       .  S
O175       Zr193   2.342       .  S
O175       Zr195   2.328       .  S
O176       Zr192   2.469       .  S
O176        C199   1.299       .  A
O177       Zr193   2.507       .  S
O177        C200   1.305       .  A
O178       Zr194   2.450       .  S
O178        C201   1.295       .  A
O179       Zr195   2.388       .  S
O179        C202   1.283       .  A
O180       Zr195   2.384       .  S
O180        C203   1.282       .  A
O181       Zr194   2.466       .  S
O181        C204   1.299       .  A
O182       Zr196   2.434       .  S
O182        C205   1.292       .  A
O183       Zr196   2.434       .  S
O183        C206   1.290       .  A
O184       Zr194   2.404       .  S
O184        C205   1.285       .  A
O185       Zr195   2.460       .  S
O185        C206   1.296       .  A
O186       Zr192   2.471       .  S
O186        C201   1.300       .  A
O187       Zr193   2.387       .  S
O187        C204   1.282       .  A
O188       Zr193   2.450       .  S
O188        C203   1.295       .  A
O189       Zr192   2.492       .  S
O189        C202   1.302       .  A
O190       Zr196   2.405       .  S
O190        C199   1.285       .  A
O191       Zr196   2.436       .  S
O191        C200   1.291       .  A
Zr192       O198   2.352       .  S
Zr192       O210   2.357       .  S
Zr193       O197   2.331       .  S
Zr193       O208   2.355       .  S
Zr194       O198   2.346       .  S
Zr194       O208   2.354       .  S
Zr195       O197   2.343       .  S
Zr195       O210   2.346       .  S
Zr196       O197   2.325       .  S
Zr196       O198   2.329       .  S
Zr196       O210   2.349       .  S
Zr196       O208   2.332       .  S
C199        C929   1.470       .  S
C200        C926   1.504       .  S
C201        C954   1.489       .  S
C202        C934   1.475       .  S
C203       C1054   1.455       .  S
C204       C1182   1.462       .  S
C205        C921   1.462       .  S
C206       C1046   1.482       .  S
H207        O208   0.971       .  S
H209        O210   0.963       .  S
C211        N212   1.353       .  A
C211        N216   1.364       .  A
C211        C917   1.489       .  S
N212        C213   1.360       .  A
C213        N214   1.368       .  A
C213        C909   1.486       .  S
N214        C215   1.367       .  A
C215        N216   1.362       .  A
C215        C913   1.497       .  S
C217        N218   1.359       .  A
C217        N222   1.367       .  A
C217        C905   1.490       .  S
N218        C219   1.354       .  A
C219        N220   1.354       .  A
C219        C901   1.472       .  S
N220        C221   1.356       .  A
C221        N222   1.367       .  A
C221        C897   1.478   1_545  S
O223       Zr259   2.455       .  S
O223        C234   1.297       .  A
O224       Zr258   2.462       .  S
O224        C235   1.296       .  A
O225       Zr231   2.441       .  S
O225        C236   1.291       .  A
O226       Zr231   2.411       .  S
O226        C237   1.290       .  A
O227       Zr261   2.446       .  S
O227        C237   1.292       .  A
O228       Zr260   2.469       .  S
O228        C236   1.298       .  A
O229       Zr231   2.457       .  S
O229        C235   1.295       .  A
O230       Zr231   2.424       .  S
O230        C234   1.288       .  A
Zr231       O232   2.340       .  S
Zr231       O233   2.341       .  S
Zr231       O241   2.351       .  S
Zr231       O239   2.319       .  S
O232       Zr258   2.332       .  S
O232       Zr261   2.346       .  S
O233       Zr259   2.349       .  S
O233       Zr260   2.332       .  S
C234       C1122   1.478       .  S
C235       C1078   1.495       .  S
C236        C885   1.490       .  S
C237       C1086   1.476       .  S
H238        O239   0.965       .  S
O239       Zr258   2.340       .  S
O239       Zr260   2.342       .  S
H240        O241   0.965       .  S
O241       Zr259   2.348       .  S
O241       Zr261   2.352       .  S
O242       Zr258   2.433       .  S
O242        C265   1.294       .  A
O243       Zr259   2.450       .  S
O243        C266   1.294       .  A
O244       Zr260   2.405       .  S
O244        C267   1.286       .  A
O245       Zr261   2.465       .  S
O245        C268   1.297       .  A
O246       Zr261   2.467       .  S
O246        C269   1.298       .  A
O247       Zr260   2.426       .  S
O247        C270   1.290       .  A
O248       Zr262   2.474       .  S
O248        C271   1.298       .  A
O249       Zr262   2.462       .  S
O249        C272   1.295       .  A
O250       Zr260   2.454       .  S
O250        C271   1.294       .  A
O251       Zr261   2.439       .  S
O251        C272   1.294       .  A
O252       Zr258   2.442       .  S
O252        C267   1.292       .  A
O253       Zr259   2.457       .  S
O253        C270   1.296       .  A
O254       Zr259   2.465       .  S
O254        C269   1.297       .  A
O255       Zr258   2.457       .  S
O255        C268   1.296       .  A
O256       Zr262   2.433       .  S
O256        C265   1.289       .  A
O257       Zr262   2.427       .  S
O257        C266   1.291       .  A
Zr258       O264   2.348       .  S
Zr258       O276   2.352       .  S
Zr259       O263   2.350       .  S
Zr259       O274   2.354       .  S
Zr260       O264   2.337       .  S
Zr260       O274   2.344       .  S
Zr261       O263   2.345       .  S
Zr261       O276   2.350       .  S
Zr262       O263   2.352       .  S
Zr262       O264   2.338       .  S
Zr262       O276   2.356       .  S
Zr262       O274   2.346       .  S
C265        C889   1.476       .  S
C266        C902   1.477       .  S
C267        C882   1.457       .  S
C268        C894   1.494       .  S
C269       C1033   1.500       .  S
C270       C1110   1.475       .  S
C271        C914   1.499       .  S
C272       C1021   1.496       .  S
H273        O274   0.966       .  S
H275        O276   0.966       .  S
C277        N278   1.358       .  A
C277        N282   1.347       .  A
C277        C930   1.473       .  S
N278        C279   1.358       .  A
C279        N280   1.359       .  A
C279        C873   1.470       .  S
N280        C281   1.356       .  A
C281        N282   1.357       .  A
C281        C877   1.465       .  S
C283        N284   1.362       .  A
C283        N288   1.355       .  A
C283        C869   1.481       .  S
N284        C285   1.355       .  A
C285        N286   1.364       .  A
C285        C933   1.486       .  S
N286        C287   1.359       .  A
C287        N288   1.361       .  A
C287        C898   1.485       .  S
C289        N290   1.352       .  A
C289        N294   1.347       .  A
C289        C865   1.458       .  S
N290        C291   1.348       .  A
C291        N292   1.366       .  A
C291        C950   1.470       .  S
N292        C293   1.364       .  A
C293        N294   1.353       .  A
C293        C890   1.464       .  S
C295        N296   1.363       .  A
C295        N300   1.365       .  A
C295        C893   1.495       .  S
N296        C297   1.361       .  A
C297        N298   1.354       .  A
C297        C857   1.474       .  S
N298        C299   1.350       .  A
C299        N300   1.367       .  A
C299        C861   1.478       .  S
O301       Zr337   2.413       .  S
O301        C312   1.288       .  A
O302       Zr336   2.501       .  S
O302        C313   1.305       .  A
O303       Zr309   2.477       .  S
O303        C314   1.301       .  A
O304       Zr309   2.490       .  S
O304        C315   1.303       .  A
O305       Zr339   2.385       .  S
O305        C315   1.282       .  A
O306       Zr338   2.381       .  S
O306        C314   1.281       .  A
O307       Zr309   2.429       .  S
O307        C313   1.289       .  A
O308       Zr309   2.429       .  S
O308        C312   1.291       .  A
Zr309       O310   2.344       .  S
Zr309       O311   2.337       .  S
Zr309       O319   2.344       .  S
Zr309       O317   2.349       .  S
O310       Zr336   2.315       .  S
O310       Zr339   2.347       .  S
O311       Zr337   2.335       .  S
O311       Zr338   2.349       .  S
C312       C1197   1.457       .  S
C313       C1002   1.500       .  S
C314       C1010   1.465       .  S
C315        C862   1.473       .  S
H316        O317   0.967       .  S
O317       Zr336   2.318       .  S
O317       Zr338   2.328       .  S
H318        O319   0.968       .  S
O319       Zr337   2.328       .  S
O319       Zr339   2.337       .  S
O320       Zr336   2.412       .  S
O320        C343   1.288       .  A
O321       Zr337   2.401       .  S
O321        C344   1.285       .  A
O322       Zr338   2.484       .  S
O322        C345   1.299       .  A
O323       Zr339   2.428       .  S
O323        C346   1.290       .  A
O324       Zr339   2.419       .  S
O324        C347   1.286       .  A
O325       Zr338   2.406       .  S
O325        C348   1.285       .  A
O326       Zr340   2.472       .  S
O326        C349   1.297       .  A
O327       Zr340   2.448       .  S
O327        C350   1.293       .  A
O328       Zr338   2.407       .  S
O328        C349   1.285       .  A
O329       Zr339   2.422       .  S
O329        C350   1.288       .  A
O330       Zr336   2.385       .  S
O330        C345   1.281       .  A
O331       Zr337   2.455       .  S
O331        C348   1.296       .  A
O332       Zr337   2.497       .  S
O332        C347   1.303       .  A
O333       Zr336   2.398       .  S
O333        C346   1.284       .  A
O334       Zr340   2.437       .  S
O334        C343   1.294       .  A
O335       Zr340   2.468       .  S
O335        C344   1.298       .  A
Zr336       O342   2.352       .  S
Zr336       O354   2.359       .  S
Zr337       O341   2.336       .  S
Zr337       O352   2.356       .  S
Zr338       O342   2.304       .  S
Zr338       O352   2.344       .  S
Zr339       O341   2.326       .  S
Zr339       O354   2.312       .  S
Zr340       O341   2.349       .  S
Zr340       O342   2.360       .  S
Zr340       O354   2.355       .  S
Zr340       O352   2.327       .  S
C343        C878   1.454       .  S
C344        C853   1.468       .  S
C345        C870   1.473       .  S
C346        C866   1.453       .  S
C347       C1186   1.493       .  S
C348       C1126   1.464       .  S
C349       C1114   1.475       .  S
C350        C850   1.470       .  S
H351        O352   0.966       .  S
H353        O354   0.964       .  S
C355        N356   1.358       .  A
C355        N360   1.343       .  A
C355        C845   1.460       .  S
N356        C357   1.357       .  A
C357        N358   1.367       .  A
C357        C838   1.486       .  S
N358        C359   1.368       .  A
C359        N360   1.347       .  A
C359        C841   1.459       .  S
C361        N362   1.370       .  A
C361        N366   1.361       .  A
C361        C829   1.496       .  S
N362        C363   1.364       .  A
C363        N364   1.357       .  A
C363        C833   1.495       .  S
N364        C365   1.354       .  A
C365        N366   1.363       .  A
C365        C938   1.478   1_655  S
C367        N368   1.350       .  A
C367        N372   1.369       .  A
C367        C825   1.466       .  S
N368        C369   1.346       .  A
C369        N370   1.353       .  A
C369        C922   1.458       .  S
N370        C371   1.355       .  A
C371        N372   1.367       .  A
C371        C821   1.479       .  S
C373        N374   1.346       .  A
C373        N378   1.372       .  A
C373        C817   1.485       .  S
N374        C375   1.346       .  A
C375        N376   1.364       .  A
C375        C814   1.475       .  S
N376        C377   1.369       .  A
C377        N378   1.377       .  A
C377        C925   1.507       .  S
O379       Zr415   2.432       .  S
O379        C390   1.290       .  A
O380       Zr414   2.513       .  S
O380        C391   1.305       .  A
O381       Zr387   2.423       .  S
O381        C392   1.290       .  A
O382       Zr387   2.505       .  S
O382        C393   1.306       .  A
O383       Zr417   2.401       .  S
O383        C393   1.284       .  A
O384       Zr416   2.452       .  S
O384        C392   1.297       .  A
O385       Zr387   2.441       .  S
O385        C391   1.292       .  A
O386       Zr387   2.479       .  S
O386        C390   1.300       .  A
Zr387       O388   2.342       .  S
Zr387       O389   2.358       .  S
Zr387       O397   2.319       .  S
Zr387       O395   2.371       .  S
O388       Zr414   2.341       .  S
O388       Zr417   2.348       .  S
O389       Zr415   2.350       .  S
O389       Zr416   2.382       .  S
C390       C1150   1.488       .  S
C391       C1089   1.506       .  S
C392       C1097   1.468       .  S
C393        C818   1.490       .  S
H394        O395   0.965       .  S
O395       Zr414   2.331       .  S
O395       Zr416   2.360       .  S
H396        O397   0.968       .  S
O397       Zr415   2.357       .  S
O397       Zr417   2.358       .  S
O398       Zr414   2.469       .  S
O398        C421   1.300       .  A
O399       Zr415   2.468       .  S
O399        C422   1.296       .  A
O400       Zr416   2.509       .  S
O400        C423   1.304       .  A
O401       Zr417   2.476       .  S
O401        C424   1.300       .  A
O402       Zr417   2.449       .  S
O402        C425   1.294       .  A
O403       Zr416   2.437       .  S
O403        C426   1.293       .  A
O404       Zr418   2.404       .  S
O404        C427   1.285       .  A
O405       Zr418   2.382       .  S
O405        C428   1.280       .  A
O406       Zr416   2.498       .  S
O406        C427   1.302       .  A
O407       Zr417   2.440       .  S
O407        C428   1.291       .  A
O408       Zr414   2.396       .  S
O408        C423   1.283       .  A
O409       Zr415   2.481       .  S
O409        C426   1.301       .  A
O410       Zr415   2.479       .  S
O410        C425   1.302       .  A
O411       Zr414   2.402       .  S
O411        C424   1.284       .  A
O412       Zr418   2.400       .  S
O412        C421   1.283       .  A
O413       Zr418   2.458       .  S
O413        C422   1.295       .  A
Zr414       O420   2.352       .  S
Zr414       O432   2.354       .  S
Zr415       O419   2.345       .  S
Zr415       O430   2.354       .  S
Zr416       O420   2.320       .  S
Zr416       O430   2.359       .  S
Zr417       O419   2.349       .  S
Zr417       O432   2.316       .  S
Zr418       O419   2.325       .  S
Zr418       O420   2.344       .  S
Zr418       O432   2.341       .  S
Zr418       O430   2.306       .  S
C421        C842   1.464       .  S
C422        C809   1.497       .  S
C423        C830   1.486       .  S
C424        C826   1.474       .  S
C425       C1137   1.494       .  S
C426        C989   1.486       .  S
C427        C978   1.488       .  S
C428        C805   1.447       .  S
H429        O430   0.964       .  S
H431        O432   0.967       .  S
C433        N434   1.362       .  A
C433        N438   1.343       .  A
C433        C801   1.467       .  S
N434        C435   1.361       .  A
C435        N436   1.360       .  A
C435        C874   1.475       .  S
N436        C437   1.352       .  A
C437        N438   1.354       .  A
C437        C806   1.464       .  S
C439        N440   1.360       .  A
C439        N444   1.356       .  A
C439        C797   1.483       .  S
N440        C441   1.359       .  A
C441        N442   1.373       .  A
C441        C793   1.501       .  S
N442        C443   1.371       .  A
C443        N444   1.361       .  A
C443        C810   1.504       .  S
C445        N446   1.360       .  A
C445        N450   1.367       .  A
C445        C789   1.487       .  S
N446        C447   1.362       .  A
C447        N448   1.348       .  A
C447        C785   1.470       .  S
N448        C449   1.354       .  A
C449        N450   1.359       .  A
C449        C849   1.483       .  S
C451        N452   1.360       .  A
C451        N456   1.355       .  A
C451        C854   1.478       .  S
N452        C453   1.354       .  A
C453        N454   1.364       .  A
C453        C813   1.482       .  S
N454        C455   1.358       .  A
C455        N456   1.362       .  A
C455        C781   1.482       .  S
C457        N458   1.360       .  A
C457        N462   1.363       .  A
C457        C773   1.494       .  S
N458        C459   1.366       .  A
C459        N460   1.365       .  A
C459        C837   1.491       .  S
N460        C461   1.364       .  A
C461        N462   1.358       .  A
C461        C777   1.494       .  S
C463        N464   1.361       .  A
C463        N468   1.351       .  A
C463        C769   1.473       .  S
N464        C465   1.362       .  A
C465        N466   1.358       .  A
C465        C858   1.473   1_655  S
N466        C467   1.353       .  A
C467        N468   1.356       .  A
C467        C765   1.469       .  S
O469       Zr505   2.468       .  S
O469        C480   1.297       .  A
O470       Zr504   2.515       .  S
O470        C481   1.307       .  A
O471       Zr477   2.426       .  S
O471        C482   1.289       .  A
O472       Zr477   2.447       .  S
O472        C483   1.295       .  A
O473       Zr507   2.420       .  S
O473        C483   1.286       .  A
O474       Zr506   2.450       .  S
O474        C482   1.296       .  A
O475       Zr477   2.397       .  S
O475        C481   1.283       .  A
O476       Zr477   2.408       .  S
O476        C480   1.285       .  A
Zr477       O478   2.331       .  S
Zr477       O479   2.335       .  S
Zr477       O487   2.323       .  S
Zr477       O485   2.345       .  S
O478       Zr504   2.345       .  S
O478       Zr507   2.349       .  S
O479       Zr505   2.341       .  S
O479       Zr506   2.350       .  S
C480       C1102   1.476       .  S
C481       C1005   1.491       .  S
C482        C770   1.475       .  S
C483       C1013   1.475       .  S
H484        O485   0.966       .  S
O485       Zr504   2.345       .  S
O485       Zr506   2.365       .  S
H486        O487   0.965       .  S
O487       Zr505   2.340       .  S
O487       Zr507   2.346       .  S
O488       Zr504   2.481       .  S
O488        C511   1.301       .  A
O489       Zr505   2.474       .  S
O489        C512   1.297       .  A
O490       Zr506   2.482       .  S
O490        C513   1.302       .  A
O491       Zr507   2.431       .  S
O491        C514   1.291       .  A
O492       Zr507   2.422       .  S
O492        C515   1.291       .  A
O493       Zr506   2.481       .  S
O493        C516   1.301       .  A
O494       Zr508   2.409       .  S
O494        C517   1.285       .  A
O495       Zr508   2.433       .  S
O495        C518   1.289       .  A
O496       Zr506   2.482       .  S
O496        C517   1.300       .  A
O497       Zr507   2.451       .  S
O497        C518   1.293       .  A
O498       Zr504   2.447       .  S
O498        C513   1.294       .  A
O499       Zr505   2.408       .  S
O499        C516   1.287       .  A
O500       Zr505   2.407       .  S
O500        C515   1.286       .  A
O501       Zr504   2.461       .  S
O501        C514   1.298       .  A
O502       Zr508   2.372       .  S
O502        C511   1.279       .  A
O503       Zr508   2.400       .  S
O503        C512   1.283       .  A
Zr504       O510   2.353       .  S
Zr504       O522   2.362       .  S
Zr505       O509   2.344       .  S
Zr505       O520   2.340       .  S
Zr506       O510   2.340       .  S
Zr506       O520   2.348       .  S
Zr507       O509   2.336       .  S
Zr507       O522   2.333       .  S
Zr508       O509   2.311       .  S
Zr508       O510   2.334       .  S
Zr508       O522   2.331       .  S
Zr508       O520   2.333       .  S
C511        C802   1.462       .  S
C512        C782   1.472       .  S
C513        C778   1.494       .  S
C514        C798   1.479       .  S
C515       C1070   1.453       .  S
C516       C1094   1.482       .  S
C517        C790   1.478       .  S
C518       C1062   1.482       .  S
H519        O520   0.964       .  S
H521        O522   0.966       .  S
C523        N524   1.360       .  A
C523        N528   1.357       .  A
C523        C757   1.482       .  S
N524        C525   1.354       .  A
C525        N526   1.364       .  A
C525        C761   1.481       .  S
N526        C527   1.361       .  A
C527        N528   1.363       .  A
C527        C822   1.488       .  S
C529        N530   1.355       .  A
C529        N534   1.347       .  A
C529        C754   1.472       .  S
N530        C531   1.360       .  A
C531        N532   1.371       .  A
C531        C745   1.486       .  S
N532        C533   1.372       .  A
C533        N534   1.353       .  A
C533        C749   1.478       .  S
O535       Zr571   2.419       .  S
O535        C546   1.288       .  A
O536       Zr570   2.466       .  S
O536        C547   1.298       .  A
O537       Zr543   2.450       .  S
O537        C548   1.294       .  A
O538       Zr543   2.402       .  S
O538        C549   1.285       .  A
O539       Zr573   2.426       .  S
O539        C549   1.291       .  A
O540       Zr572   2.461       .  S
O540        C548   1.295       .  A
O541       Zr543   2.455       .  S
O541        C547   1.296       .  A
O542       Zr543   2.486       .  S
O542        C546   1.302       .  A
Zr543       O544   2.362       .  S
Zr543       O545   2.317       .  S
Zr543       O553   2.352       .  S
Zr543       O551   2.342       .  S
O544       Zr570   2.335       .  S
O544       Zr573   2.320       .  S
O545       Zr571   2.350       .  S
O545       Zr572   2.330       .  S
C546       C1170   1.488       .  S
C547        C966   1.490       .  S
C548        C834   1.488       .  S
C549        C973   1.447       .  S
H550        O551   0.967       .  S
O551       Zr570   2.365       .  S
O551       Zr572   2.338       .  S
H552        O553   0.963       .  S
O553       Zr571   2.318       .  S
O553       Zr573   2.345       .  S
O554       Zr570   2.482       .  S
O554        C577   1.301       .  A
O555       Zr571   2.422       .  S
O555        C578   1.287       .  A
O556       Zr572   2.453       .  S
O556        C579   1.296       .  A
O557       Zr573   2.444       .  S
O557        C580   1.291       .  A
O558       Zr573   2.399       .  S
O558        C581   1.282       .  A
O559       Zr572   2.462       .  S
O559        C582   1.298       .  A
O560       Zr574   2.487       .  S
O560        C583   1.302       .  A
O561       Zr574   2.471       .  S
O561        C584   1.300       .  A
O562       Zr572   2.398       .  S
O562        C583   1.284       .  A
O563       Zr573   2.409       .  S
O563        C584   1.286       .  A
O564       Zr570   2.387       .  S
O564        C579   1.282       .  A
O565       Zr571   2.388       .  S
O565        C582   1.282       .  A
O566       Zr571   2.458       .  S
O566        C581   1.297       .  A
O567       Zr570   2.436       .  S
O567        C580   1.291       .  A
O568       Zr574   2.390       .  S
O568        C577   1.282       .  A
O569       Zr574   2.444       .  S
O569        C578   1.294       .  A
Zr570       O576   2.342       .  S
Zr570       O588   2.328       .  S
Zr571       O575   2.310       .  S
Zr571       O586   2.341       .  S
Zr572       O576   2.343       .  S
Zr572       O586   2.357       .  S
Zr573       O575   2.340       .  S
Zr573       O588   2.336       .  S
Zr574       O575   2.328       .  S
Zr574       O576   2.341       .  S
Zr574       O588   2.361       .  S
Zr574       O586   2.328       .  S
C577        C738   1.471       .  S
C578        C753   1.475       .  S
C579        C846   1.458       .  S
C580        C741   1.480       .  S
C581       C1146   1.469       .  S
C582       C1158   1.460       .  S
C583        C762   1.477       .  S
C584       C1134   1.475       .  S
H585        O586   0.964       .  S
H587        O588   0.964       .  S
C589        N590   1.360       .  A
C589        N594   1.361       .  A
C589        C881   1.475       .  S
N590        C591   1.346       .  A
C591        N592   1.352       .  A
C591        C733   1.467       .  S
N592        C593   1.350       .  A
C593        N594   1.364       .  A
C593        C786   1.468       .  S
C595        N596   1.358       .  A
C595        N600   1.366       .  A
C595        C886   1.491       .  S
N596        C597   1.361       .  A
C597        N598   1.358       .  A
C597        C729   1.494       .  S
N598        C599   1.366       .  A
C599        N600   1.365       .  A
C599        C746   1.495   1_556  S
C601        N602   1.349       .  A
C601        N606   1.360       .  A
C601        C725   1.454       .  S
N602        C603   1.346       .  A
C603        N604   1.363       .  A
C603        C737   1.472       .  S
N604        C605   1.363       .  A
C605        N606   1.360       .  A
C605        C910   1.480       .  S
C607        N608   1.352       .  A
C607        N612   1.351       .  A
C607        C742   1.480       .  S
N608        C609   1.357       .  A
C609        N610   1.381       .  A
C609        C794   1.497       .  S
N610        C611   1.380       .  A
C611        N612   1.359       .  A
C611        C721   1.502       .  S
O613       Zr649   2.409       .  S
O613        C624   1.286       .  A
O614       Zr648   2.408       .  S
O614        C625   1.286       .  A
O615       Zr621   2.423       .  S
O615        C626   1.288       .  A
O616       Zr621   2.437       .  S
O616        C627   1.292       .  A
O617       Zr651   2.414       .  S
O617        C627   1.286       .  A
O618       Zr650   2.470       .  S
O618        C626   1.298       .  A
O619       Zr621   2.502       .  S
O619        C625   1.306       .  A
O620       Zr621   2.479       .  S
O620        C624   1.303       .  A
Zr621       O622   2.337       .  S
Zr621       O623   2.346       .  S
Zr621       O631   2.355       .  S
Zr621       O629   2.346       .  S
O622       Zr648   2.348       .  S
O622       Zr651   2.332       .  S
O623       Zr649   2.372       .  S
O623       Zr650   2.331       .  S
C624       C1174   1.477       .  S
C625       C1025   1.487       .  S
C626       C1038   1.483       .  S
C627        C766   1.463       .  S
H628        O629   0.967       .  S
O629       Zr648   2.353       .  S
O629       Zr650   2.326       .  S
H630        O631   0.965       .  S
O631       Zr649   2.351       .  S
O631       Zr651   2.314       .  S
O632       Zr648   2.424       .  S
O632        C655   1.292       .  A
O633       Zr649   2.488       .  S
O633        C656   1.300       .  A
O634       Zr650   2.463       .  S
O634        C657   1.296       .  A
O635       Zr651   2.403       .  S
O635        C658   1.285       .  A
O636       Zr651   2.442       .  S
O636        C659   1.290       .  A
O637       Zr650   2.431       .  S
O637        C660   1.294       .  A
O638       Zr652   2.491       .  S
O638        C661   1.301       .  A
O639       Zr652   2.456       .  S
O639        C662   1.295       .  A
O640       Zr650   2.405       .  S
O640        C661   1.286       .  A
O641       Zr651   2.393       .  S
O641        C662   1.283       .  A
O642       Zr648   2.485       .  S
O642        C657   1.302       .  A
O643       Zr649   2.428       .  S
O643        C660   1.289       .  A
O644       Zr649   2.474       .  S
O644        C659   1.299       .  A
O645       Zr648   2.489       .  S
O645        C658   1.300       .  A
O646       Zr652   2.420       .  S
O646        C655   1.287       .  A
O647       Zr652   2.410       .  S
O647        C656   1.286       .  A
Zr648       O654   2.337       .  S
Zr648       O666   2.337       .  S
Zr649       O653   2.319       .  S
Zr649       O664   2.349       .  S
Zr650       O654   2.343       .  S
Zr650       O664   2.363       .  S
Zr651       O653   2.335       .  S
Zr651       O666   2.340       .  S
Zr652       O653   2.350       .  S
Zr652       O654   2.338       .  S
Zr652       O666   2.352       .  S
Zr652       O664   2.339       .  S
C655        C726   1.464       .  S
C656        C730   1.484       .  S
C657        C722   1.511       .  S
C658        C774   1.482       .  S
C659       C1162   1.498       .  S
C660       C1066   1.473       .  S
C661       C1058   1.480       .  S
C662        C734   1.455       .  S
H663        O664   0.967       .  S
H665        O666   0.964       .  S
O667       Zr703   2.411       .  S
O667        C678   1.288       .  A
O668       Zr702   2.461       .  S
O668        C679   1.295       .  A
O669       Zr675   2.478       .  S
O669        C680   1.301       .  A
O670       Zr675   2.459       .  S
O670        C681   1.296       .  A
O671       Zr705   2.439       .  S
O671        C681   1.293       .  A
O672       Zr704   2.358       .  S
O672        C680   1.276       .  A
O673       Zr675   2.463       .  S
O673        C679   1.296       .  A
O674       Zr675   2.418       .  S
O674        C678   1.288       .  A
Zr675       O676   2.343       .  S
Zr675       O677   2.343       .  S
Zr675       O685   2.375       .  S
Zr675       O683   2.330       .  S
O676       Zr702   2.320       .  S
O676       Zr705   2.370       .  S
O677       Zr703   2.330       .  S
O677       Zr704   2.329       .  S
C678       C1082   1.459       .  S
C679        C962   1.498       .  S
C680        C970   1.455       .  S
C681        C946   1.475       .  S
H682        O683   0.963       .  S
O683       Zr702   2.328       .  S
O683       Zr704   2.349       .  S
H684        O685   0.966       .  S
O685       Zr703   2.324       .  S
O685       Zr705   2.339       .  S
O686       Zr702   2.394       .  S
O686        C709   1.284       .  A
O687       Zr703   2.421       .  S
O687        C710   1.287       .  A
O688       Zr704   2.458       .  S
O688        C711   1.295       .  A
O689       Zr705   2.407       .  S
O689        C712   1.285       .  A
O690       Zr705   2.506       .  S
O690        C713   1.303       .  A
O691       Zr704   2.489       .  S
O691        C714   1.301       .  A
O692       Zr706   2.488       .  S
O692        C715   1.301       .  A
O693       Zr706   2.400       .  S
O693        C716   1.286       .  A
O694       Zr704   2.391       .  S
O694        C715   1.282       .  A
O695       Zr705   2.483       .  S
O695        C716   1.301       .  A
O696       Zr702   2.448       .  S
O696        C711   1.294       .  A
O697       Zr703   2.374       .  S
O697        C714   1.278       .  A
O698       Zr703   2.404       .  S
O698        C713   1.283       .  A
O699       Zr702   2.464       .  S
O699        C712   1.299       .  A
O700       Zr706   2.505       .  S
O700        C709   1.305       .  A
O701       Zr706   2.471       .  S
O701        C710   1.301       .  A
Zr702       O708   2.352       .  S
Zr702       O720   2.350       .  S
Zr703       O707   2.321       .  S
Zr703       O718   2.342       .  S
Zr704       O708   2.328       .  S
Zr704       O718   2.323       .  S
Zr705       O707   2.324       .  S
Zr705       O720   2.365       .  S
Zr706       O707   2.365       .  S
Zr706       O708   2.323       .  S
Zr706       O720   2.368       .  S
Zr706       O718   2.339       .  S
C709        C918   1.482       .  S
C710        C750   1.486       .  S
C711        C906   1.485       .  S
C712        C958   1.471       .  S
C713       C1074   1.493       .  S
C714       C1050   1.467       .  S
C715       C1041   1.476       .  S
C716        C758   1.471       .  S
H717        O718   0.966       .  S
H719        O720   0.966       .  S
C721        C722   1.350       .  D
C721        H723   1.087       .  S
C722        H724   1.086       .  S
C725        C726   1.336       .  D
C725        H727   1.087       .  S
C726        H728   1.087       .  S
C729        C730   1.345       .  D
C729        H731   1.086       .  S
C730        H732   1.087       .  S
C733        C734   1.336       .  D
C733        H735   1.087       .  S
C734        H736   1.088       .  S
C737        C738   1.332       .  D
C737        H739   1.087       .  S
C738        H740   1.088       .  S
C741        C742   1.347       .  D
C741        H743   1.087       .  S
C742        H744   1.087       .  S
C745        C746   1.348       .  D
C745        H747   1.087       .  S
C746        H748   1.086       .  S
C749        C750   1.338       .  D
C749        H751   1.087       .  S
C750        H752   1.087       .  S
C753        C754   1.340       .  D
C753        H755   1.087       .  S
C754        H756   1.087       .  S
C757        C758   1.340       .  D
C757        H759   1.086       .  S
C758        H760   1.087       .  S
C761        C762   1.337       .  D
C761        H763   1.086       .  S
C762        H764   1.088       .  S
C765        C766   1.340       .  D
C765        H767   1.086       .  S
C766        H768   1.087       .  S
C769        C770   1.339       .  D
C769        H771   1.087       .  S
C770        H772   1.087       .  S
C773        C774   1.344       .  D
C773        H775   1.086       .  S
C774        H776   1.087       .  S
C777        C778   1.348       .  D
C777        H779   1.086       .  S
C778        H780   1.087       .  S
C781        C782   1.340       .  D
C781        H783   1.086       .  S
C782        H784   1.088       .  S
C785        C786   1.333       .  D
C785        H787   1.087       .  S
C786        H788   1.087       .  S
C789        C790   1.341       .  D
C789        H791   1.086       .  S
C790        H792   1.088       .  S
C793        C794   1.343   1_565  D
C793        H795   1.086       .  S
C794        H796   1.087       .  S
C797        C798   1.343       .  D
C797        H799   1.086       .  S
C798        H800   1.087       .  S
C801        C802   1.329       .  D
C801        H803   1.087       .  S
C802        H804   1.089       .  S
C805        C806   1.336       .  D
C805        H807   1.088       .  S
C806        H808   1.086       .  S
C809        C810   1.358       .  D
C809        H811   1.087       .  S
C810        H812   1.086       .  S
C813        C814   1.338   1_556  D
C813        H815   1.086       .  S
C814        H816   1.087   1_554  S
C817        C818   1.335       .  D
C817        H819   1.087       .  S
C818        H820   1.087       .  S
C821        C822   1.344       .  D
C821        H823   1.087       .  S
C822        H824   1.086       .  S
C825        C826   1.335       .  D
C825        H827   1.087       .  S
C826        H828   1.087       .  S
C829        C830   1.343       .  D
C829        H831   1.086       .  S
C830        H832   1.087       .  S
C833        C834   1.353       .  D
C833        H835   1.086       .  S
C834        H836   1.087       .  S
C837        C838   1.347       .  D
C837        H839   1.086       .  S
C838        H840   1.087       .  S
C841        C842   1.331       .  D
C841        H843   1.087       .  S
C842        H844   1.087       .  S
C845        C846   1.332       .  D
C845        H847   1.087       .  S
C846        H848   1.088       .  S
C849        C850   1.346       .  D
C849        H851   1.086       .  S
C850        H852   1.087       .  S
C853        C854   1.339       .  D
C853        H855   1.088       .  S
C854        H856   1.086       .  S
C857        C858   1.349       .  D
C857        H859   1.086       .  S
C858        H860   1.087       .  S
C861        C862   1.334       .  D
C861        H863   1.087       .  S
C862        H864   1.088       .  S
C865        C866   1.337       .  D
C865        H867   1.087       .  S
C866        H868   1.088       .  S
C869        C870   1.338       .  D
C869        H871   1.086       .  S
C870        H872   1.088       .  S
C873        C874   1.345       .  D
C873        H875   1.086       .  S
C874        H876   1.086       .  S
C877        C878   1.339       .  D
C877        H879   1.087       .  S
C878        H880   1.087       .  S
C881        C882   1.340       .  D
C881        H883   1.086       .  S
C882        H884   1.088       .  S
C885        C886   1.347       .  D
C885        H887   1.087       .  S
C886        H888   1.087       .  S
C889        C890   1.340       .  D
C889        H891   1.086       .  S
C890        H892   1.088       .  S
C893        C894   1.354       .  D
C893        H895   1.086       .  S
C894        H896   1.086       .  S
C897        C898   1.344       .  D
C897        H899   1.087       .  S
C898        H900   1.086       .  S
C901        C902   1.347       .  D
C901        H903   1.086       .  S
C902        H904   1.087       .  S
C905        C906   1.353       .  D
C905        H907   1.086       .  S
C906        H908   1.087       .  S
C909        C910   1.352       .  D
C909        H911   1.086       .  S
C910        H912   1.086       .  S
C913        C914   1.351       .  D
C913        H915   1.086       .  S
C914        H916   1.087       .  S
C917        C918   1.339       .  D
C917        H919   1.086       .  S
C918        H920   1.088       .  S
C921        C922   1.338       .  D
C921        H923   1.087       .  S
C922        H924   1.087       .  S
C925        C926   1.350       .  D
C925        H927   1.086       .  S
C926        H928   1.087       .  S
C929        C930   1.336       .  D
C929        H931   1.088       .  S
C930        H932   1.087       .  S
C933        C934   1.338       .  D
C933        H935   1.086       .  S
C934        H936   1.088       .  S
C937        C938   1.340       .  D
C937        H939   1.087       .  S
C938        H940   1.087       .  S
C941        C942   1.340       .  D
C941        H943   1.087       .  S
C942        H944   1.087       .  S
C945        C946   1.347       .  D
C945        H947   1.086       .  S
C946        H948   1.087       .  S
C949        C950   1.330       .  D
C949        H951   1.087       .  S
C950        H952   1.087       .  S
C953        C954   1.348       .  D
C953        H955   1.086       .  S
C954        H956   1.087       .  S
C957        C958   1.334       .  D
C957        H959   1.087       .  S
C958        H960   1.087       .  S
C961        C962   1.352       .  D
C961        H963   1.086       .  S
C962        H964   1.086       .  S
C965        C966   1.353       .  D
C965        H967   1.086       .  S
C966        H968   1.086       .  S
C969        C970   1.324       .  D
C969        H971   1.087       .  S
C970        H972   1.088       .  S
C973        C974   1.335       .  D
C973        H975   1.088       .  S
C974        H976   1.087       .  S
C977        C978   1.346       .  D
C977        H979   1.086       .  S
C978        H980   1.087       .  S
C981        C982   1.329       .  D
C981        H983   1.087       .  S
C982        H984   1.088       .  S
C985        C986   1.343       .  D
C985        H987   1.087   1_455  S
C986        H988   1.086       .  S
C989        C990   1.357       .  D
C989        H991   1.086       .  S
C990        H992   1.086       .  S
C993        C994   1.334       .  D
C993        H995   1.086       .  S
C994        H996   1.088       .  S
C997        C998   1.347       .  D
C997        H999   1.087       .  S
C998       H1000   1.086   1_455  S
C1001      C1002   1.343       .  D
C1001      H1003   1.087       .  S
C1002      H1004   1.087       .  S
C1005      C1006   1.337       .  D
C1005      H1007   1.087       .  S
C1006      H1008   1.087       .  S
C1009      C1010   1.331       .  D
C1009      H1011   1.087       .  S
C1010      H1012   1.088       .  S
C1013      C1014   1.338       .  D
C1013      H1015   1.087       .  S
C1014      H1016   1.087       .  S
C1017      C1018   1.353       .  D
C1017      H1019   1.086   1_455  S
C1018      H1020   1.086       .  S
C1021      C1022   1.348       .  D
C1021      H1023   1.086       .  S
C1022      H1024   1.087       .  S
C1025      C1026   1.338       .  D
C1025      H1027   1.087       .  S
C1026      H1028   1.087       .  S
C1029      C1030   1.340       .  D
C1029      H1031   1.086       .  S
C1030      H1032   1.087   1_455  S
C1033      C1034   1.352       .  D
C1033      H1035   1.086       .  S
C1034      H1036   1.086       .  S
C1037      C1038   1.340       .  D
C1037      H1039   1.087       .  S
C1038      H1040   1.087       .  S
C1041      C1042   1.337       .  D
C1041      H1043   1.088       .  S
C1042      H1044   1.086       .  S
C1045      C1046   1.346       .  D
C1045      H1047   1.087       .  S
C1046      H1048   1.087       .  S
C1049      C1050   1.331       .  D
C1049      H1051   1.087       .  S
C1050      H1052   1.088       .  S
C1053      C1054   1.335       .  D
C1053      H1055   1.086       .  S
C1054      H1056   1.088       .  S
C1057      C1058   1.343       .  D
C1057      H1059   1.086       .  S
C1058      H1060   1.087       .  S
C1061      C1062   1.347       .  D
C1061      H1063   1.086       .  S
C1062      H1064   1.087       .  S
C1065      C1066   1.339       .  D
C1065      H1067   1.087       .  S
C1066      H1068   1.087       .  S
C1069      C1070   1.336       .  D
C1069      H1071   1.087       .  S
C1070      H1072   1.087       .  S
C1073      C1074   1.344       .  D
C1073      H1075   1.086       .  S
C1074      H1076   1.087       .  S
C1077      C1078   1.354       .  D
C1077      H1079   1.086       .  S
C1078      H1080   1.086       .  S
C1081      C1082   1.342       .  D
C1081      H1083   1.087       .  S
C1082      H1084   1.087       .  S
C1085      C1086   1.344       .  D
C1085      H1087   1.087       .  S
C1086      H1088   1.086       .  S
C1089      C1090   1.352       .  D
C1089      H1091   1.087       .  S
C1090      H1092   1.086       .  S
C1093      C1094   1.359       .  D
C1093      H1095   1.086       .  S
C1094      H1096   1.086       .  S
C1097      C1098   1.341       .  D
C1097      H1099   1.088       .  S
C1098      H1100   1.086       .  S
C1101      C1102   1.339       .  D
C1101      H1103   1.087       .  S
C1102      H1104   1.087       .  S
C1105      C1106   1.342       .  D
C1105      H1107   1.087   1_565  S
C1106      H1108   1.086       .  S
C1109      C1110   1.344       .  D
C1109      H1111   1.086       .  S
C1110      H1112   1.087       .  S
C1113      C1114   1.342       .  D
C1113      H1115   1.086       .  S
C1114      H1116   1.088       .  S
C1117      C1118   1.344   1_566  D
C1117      H1119   1.087   1_556  S
C1118      H1120   1.086       .  S
C1121      C1122   1.338       .  D
C1121      H1123   1.087       .  S
C1122      H1124   1.087       .  S
C1125      C1126   1.336       .  D
C1125      H1127   1.086       .  S
C1126      H1128   1.087       .  S
C1129      C1130   1.343       .  D
C1129      H1131   1.087   1_565  S
C1130      H1132   1.086       .  S
C1133      C1134   1.337       .  D
C1133      H1135   1.087       .  S
C1134      H1136   1.087       .  S
C1137      C1138   1.346       .  D
C1137      H1139   1.087       .  S
C1138      H1140   1.087       .  S
C1141      C1142   1.331       .  D
C1141      H1143   1.087   1_565  S
C1142      H1144   1.087       .  S
C1145      C1146   1.334       .  D
C1145      H1147   1.087       .  S
C1146      H1148   1.087       .  S
C1149      C1150   1.346       .  D
C1149      H1151   1.086       .  S
C1150      H1152   1.087       .  S
C1153      C1154   1.332   1_556  D
C1153      H1155   1.087       .  S
C1154      H1156   1.088       .  S
C1157      C1158   1.331       .  D
C1157      H1159   1.087       .  S
C1158      H1160   1.088       .  S
C1161      C1162   1.346       .  D
C1161      H1163   1.087       .  S
C1162      H1164   1.086       .  S
C1165      C1166   1.330   1_556  D
C1165      H1167   1.087       .  S
C1166      H1168   1.087       .  S
C1169      C1170   1.342       .  D
C1169      H1171   1.086       .  S
C1170      H1172   1.087       .  S
C1173      C1174   1.333       .  D
C1173      H1175   1.087       .  S
C1174      H1176   1.087       .  S
C1177      C1178   1.341   1_554  D
C1177      H1179   1.088       .  S
C1178      H1180   1.086       .  S
C1181      C1182   1.330       .  D
C1181      H1183   1.087       .  S
C1182      H1184   1.088       .  S
C1185      C1186   1.342       .  D
C1185      H1187   1.087       .  S
C1186      H1188   1.087       .  S
C1189      C1190   1.350   1_554  D
C1189      H1191   1.086       .  S
C1190      H1192   1.086       .  S
C1193      C1194   1.329       .  D
C1193      H1195   1.087       .  S
C1194      H1196   1.088       .  S
C1197      C1198   1.342       .  D
C1197      H1199   1.087       .  S
C1198      H1200   1.086       .  S
