geometry optimzed in LAMMPS
_audit_creation_date              2020-11-30 
_audit_creation_method            'lammps2cif' 
_symmetry_space_group_name_H-M    'P1' 
_symmetry_Int_Tables_number       1 
_symmetry_cell_setting            triclinic 
loop_ 
_symmetry_equiv_pos_as_xyz 
  x,y,z 
_cell_length_a                    27.40795695 
_cell_length_b                    27.4791907187637 
_cell_length_c                    27.421667923973146 
_cell_angle_alpha                 91.22943192193289 
_cell_angle_beta                  90.08304679791948 
_cell_angle_gamma                 90.37313174865396 
loop_ 
_atom_site_label 
_atom_site_type_symbol 
_atom_site_fract_x 
_atom_site_fract_y 
_atom_site_fract_z 
_atom_site_charge 
C1          C  0.05720837  0.75174719  0.00090192     0.79100
N2          N  0.08037904  0.74332000  0.04293391    -0.79200
C3          C  0.12828822  0.73404581  0.04342722     0.81500
N4          N  0.15399307  0.73277474  0.00100283    -0.79200
C5          C  0.12997983  0.74052514  0.95830365     0.81600
N6          N  0.08155301  0.74989904  0.95834497    -0.80900
C7          C  0.35156007  0.59536847  0.99343567     0.79100
N8          N  0.33458635  0.60913100  0.03823079    -0.79200
C9          C  0.30480171  0.64813195  0.04403984     0.81500
N10         N  0.29069998  0.67322455  0.00266804    -0.79200
C11         C  0.30730225  0.65858740  0.95685737     0.81600
N12         N  0.33734762  0.61994551  0.95379323    -0.80900
C13         C  0.81085576  0.10009974  0.00040913     0.79100
N14         N  0.79888814  0.12122902  0.95791183    -0.79200
C15         C  0.77933955  0.16632465  0.95762247     0.81500
N16         N  0.77007668  0.19042676  0.00044915    -0.79200
C17         C  0.78365081  0.17015038  0.04319446     0.81600
N18         N  0.80320576  0.12504036  0.04280674    -0.80900
C19         C  0.56004162  0.32717085  0.00013059     0.79100
N20         N  0.57453558  0.31017443  0.04422872    -0.79200
C21         C  0.60419265  0.27051678  0.04691923     0.81500
N22         N  0.62050522  0.24883907  0.00364003    -0.79200
C23         C  0.60684493  0.26737943  0.95905669     0.81600
N24         N  0.57699415  0.30585610  0.95883290    -0.80900
C25         C  0.72901610  0.96187560  0.09362011     0.79100
N26         N  0.73619981  0.00401114  0.11817736    -0.79200
C27         C  0.74100977  0.00576912  0.16679828     0.81500
N28         N  0.73994279  0.96367952  0.19246687    -0.79200
C29         C  0.73426557  0.92030245  0.16765344     0.81600
N30         N  0.72752419  0.92000760  0.11853873    -0.80900
C31         C  0.58957090  0.96804632  0.38663639     0.79100
N32         N  0.60701878  0.92368180  0.37269441    -0.79200
C33         C  0.64868903  0.91978196  0.34587637     0.81500
N34         N  0.67211874  0.96228051  0.33153501    -0.79200
C35         C  0.65350469  0.00734610  0.34527767     0.81600
N36         N  0.61311579  0.00863076  0.37276157    -0.80900
C37         C  0.09925326  0.95757029  0.86639910     0.79100
N38         N  0.12092831  0.99998367  0.85513521    -0.79200
C39         C  0.16314203  0.00052189  0.83007149     0.81500
N40         N  0.18370307  0.95804791  0.81420471    -0.79200
C41         C  0.16269735  0.91515825  0.82691683     0.81600
N42         N  0.12071191  0.91527580  0.85254444    -0.80900
C43         C  0.31021181  0.95536404  0.60176515     0.79100
N44         N  0.29250435  0.91249125  0.61826184    -0.79200
C45         C  0.25491774  0.91108842  0.65046805     0.81500
N46         N  0.23544126  0.95470533  0.66744842    -0.79200
C47         C  0.25432311  0.99853422  0.65163590     0.81600
N48         N  0.29139824  0.99764946  0.61929385    -0.80900
C49         C  0.79570010  0.82284379  0.00133979     0.79100
N50         N  0.79753933  0.79677238  0.95900351    -0.79200
C51         C  0.78329823  0.74938212  0.95702964     0.81500
N52         N  0.76622148  0.72790450  0.99798129    -0.79200
C53         C  0.76018541  0.75595234  0.03886728     0.81600
N54         N  0.76961159  0.80432371  0.03822670    -0.80900
C55         C  0.55724260  0.60088890  0.00216010     0.79100
N56         N  0.57443589  0.61564986  0.95806687    -0.79200
C57         C  0.60564022  0.65448478  0.95503533     0.81500
N58         N  0.62098866  0.67741080  0.99838841    -0.79200
C59         C  0.60448928  0.66108600  0.04313168     0.81600
N60         N  0.57290670  0.62365320  0.04334025    -0.80900
C61         C  0.05240724  0.14577885  0.99637575     0.79100
N62         N  0.07405890  0.15086184  0.04091456    -0.79200
C63         C  0.11979913  0.17065142  0.04455216     0.81500
N64         N  0.14391580  0.18445014  0.00362024    -0.79200
C65         C  0.12082437  0.18090019  0.95981410     0.81600
N66         N  0.07581830  0.16192907  0.95684882    -0.80900
C67         C  0.34784435  0.32240825  0.00715846     0.79100
N68         N  0.33199194  0.30154542  0.04871383    -0.79200
C69         C  0.30315917  0.26132886  0.04784854     0.81500
N70         N  0.28930149  0.24174801  0.00284088    -0.79200
C71         C  0.30445953  0.26333570  0.96000117     0.81600
N72         N  0.33324067  0.30363815  0.96324991    -0.80900
C73         C  0.70653481  0.91387275  0.81352473     0.79100
N74         N  0.66427104  0.91017562  0.83795470    -0.79200
C75         C  0.63668334  0.94882974  0.84841578     0.81500
N76         N  0.65151389  0.99233155  0.83194922    -0.79200
C77         C  0.69376807  0.99755711  0.80675291     0.81600
N78         N  0.72205996  0.95783112  0.79679139    -0.80900
C79         C  0.58446574  0.95085564  0.61647562     0.79100
N80         N  0.60968693  0.91149817  0.63022177    -0.79200
C81         C  0.65065199  0.91455734  0.65705777     0.81500
N82         N  0.66783391  0.96077490  0.67058794    -0.79200
C83         C  0.64256785  0.00251499  0.65690098     0.81600
N84         N  0.60047903  0.99632717  0.63047325    -0.80900
C85         C  0.17848809  0.99129009  0.17320614     0.79100
N86         N  0.18695024  0.95063644  0.19959419    -0.79200
C87         C  0.17982300  0.90639964  0.17747789     0.81500
N88         N  0.16287649  0.90314346  0.13192656    -0.79200
C89         C  0.15231017  0.94288557  0.10699393     0.81600
N90         N  0.16063379  0.98733096  0.12727279    -0.80900
C91         C  0.31572744  0.95040241  0.39978545     0.79100
N92         N  0.29588886  0.90784457  0.38369224    -0.79200
C93         C  0.25831411  0.90636693  0.35193573     0.81500
N94         N  0.23995935  0.95026058  0.33531761    -0.79200
C95         C  0.26068501  0.99449720  0.35066021     0.81600
N96         N  0.29863262  0.99320527  0.38247784    -0.80900
C97         C  0.90859761  0.14044582  0.77679255     0.79100
N98         N  0.95288772  0.16268315  0.77306692    -0.79200
C99         C  0.99344872  0.13481921  0.77824155     0.81500
N100        N  0.98919162  0.08709378  0.78769349    -0.79200
C101        C  0.94473472  0.06676363  0.79234322     0.81600
N102        N  0.90501181  0.09330653  0.78671386    -0.80900
C103        C  0.95147149  0.34898046  0.63969174     0.79100
N104        N  0.91036826  0.33322980  0.66167979    -0.79200
C105        C  0.91124831  0.30330878  0.70000084     0.81500
N106        N  0.95641484  0.28838073  0.71718360    -0.79200
C107        C  0.99937192  0.30351079  0.69455166     0.81600
N108        N  0.99571125  0.33325784  0.65559841    -0.80900
C109        C  0.99986084  0.76096509  0.79121671     0.79100
N110        N  0.00104280  0.77174810  0.83957857    -0.79200
C111        C  0.96457054  0.79832000  0.85842227     0.81500
N112        N  0.92020102  0.79059099  0.83868624    -0.79200
C113        C  0.91681069  0.77808064  0.79087336     0.81600
N114        N  0.95741700  0.76402534  0.76573676    -0.80900
C115        C  0.96351367  0.57838524  0.62816323     0.79100
N116        N  0.92004844  0.59133816  0.64784986    -0.79200
C117        C  0.91744484  0.61323396  0.69266241     0.81500
N118        N  0.96110712  0.62343992  0.71760749    -0.79200
C119        C  0.00577554  0.61004538  0.69699194     0.81600
N120        N  0.00516495  0.58771458  0.65296776    -0.80900
C121        C  0.99765817  0.77721635  0.21037240     0.79100
N122        N  0.95428314  0.76572802  0.23170052    -0.79200
C123        C  0.91232603  0.78159869  0.21088493     0.81500
N124        N  0.91405892  0.80469806  0.16823054    -0.79200
C125        C  0.95687236  0.81485356  0.14647567     0.81600
N126        N  0.99863621  0.80119426  0.16798949    -0.80900
C127        C  0.94318482  0.55994825  0.35112613     0.79100
N128        N  0.90237863  0.57925278  0.33193573    -0.79200
C129        C  0.90433522  0.61065651  0.29467657     0.81500
N130        N  0.94976733  0.62369754  0.27648181    -0.79200
C131        C  0.99203600  0.60465644  0.29652153     0.81600
N132        N  0.98750830  0.57331297  0.33359983    -0.80900
C133        C  0.99687210  0.12518423  0.22546155     0.79100
N134        N  0.95738767  0.15478560  0.23044450    -0.79200
C135        C  0.91276810  0.13653539  0.21847065     0.81500
N136        N  0.90797479  0.09089223  0.20144136    -0.79200
C137        C  0.94668035  0.06215531  0.19583360     0.81600
N138        N  0.99153615  0.07901087  0.20801060    -0.80900
C139        C  0.96336178  0.35413173  0.36782220     0.79100
N140        N  0.91891993  0.34088629  0.34927595    -0.79200
C141        C  0.91491004  0.31012530  0.30978566     0.81500
N142        N  0.95769221  0.29139284  0.28944283    -0.79200
C143        C  0.00303236  0.30359247  0.30938154     0.81600
N144        N  0.00431931  0.33468210  0.34808330    -0.80900
C145        C  0.21787488  0.45200559  0.40916976     0.79100
N146        N  0.21912180  0.49404970  0.38470469    -0.79200
C147        C  0.23216488  0.49444769  0.33683760     0.81500
N148        N  0.24189483  0.45175306  0.31254470    -0.79200
C149        C  0.24070973  0.40956351  0.33775269     0.81600
N150        N  0.22936164  0.41057595  0.38542450    -0.80900
C151        C  0.08624314  0.44162989  0.11516593     0.79100
N152        N  0.10369424  0.48614985  0.12966596    -0.79200
C153        C  0.14507906  0.49049256  0.15701922     0.81500
N154        N  0.16848434  0.44839690  0.17112543    -0.79200
C155        C  0.14994130  0.40320786  0.15725827     0.81600
N156        N  0.10929920  0.40116519  0.12963685    -0.80900
O157        O  0.12371596  0.69505933  0.11746908    -0.87600
O158        O  0.35253969  0.76850808  0.26004070    -0.87800
O159        O  0.21358318  0.83035548  0.17436247    -0.89500
O160        O  0.27486063  0.70555995  0.10336818    -0.88200
O161        O  0.28444819  0.62719522  0.12900721    -0.87800
O162        O  0.16351974  0.85150911  0.23881771    -0.89200
O163        O  0.32469812  0.77760367  0.18193408    -0.87700
O164        O  0.18927177  0.74536835  0.10193788    -0.87300
Zr165      Zr  0.23886522  0.74576760  0.17436079     2.84300
O166        O  0.28637896  0.69690875  0.22308979    -1.09200
O167        O  0.15873576  0.74459190  0.20599817    -1.10000
C168        C  0.14932100  0.72341916  0.09020168     1.05500
C169        C  0.35866649  0.78129838  0.21529765     1.05400
C170        C  0.18764241  0.86059207  0.19989437     1.08400
C171        C  0.28702376  0.66094293  0.09540350     1.06200
H172        H  0.24953004  0.81039451  0.25159056     0.31700
O173        O  0.23486207  0.77856910  0.25320587    -1.30200
H174        H  0.20180647  0.65354393  0.13658086     0.31400
O175        O  0.20387838  0.66666788  0.16935451    -1.31900
O176        O  0.28373687  0.70620819  0.38744846    -0.87600
O177        O  0.05122611  0.63265893  0.23857162    -0.89100
O178        O  0.19725361  0.85007883  0.32117663    -0.87700
O179        O  0.33577770  0.61139966  0.24722264    -0.87800
O180        O  0.20745297  0.54738845  0.18353424    -0.87500
O181        O  0.07054234  0.78356470  0.25534778    -0.87300
O182        O  0.13174278  0.69415015  0.39935547    -0.87600
O183        O  0.19559505  0.56939781  0.33307249    -0.87100
O184        O  0.12546289  0.77261663  0.37361053    -0.88200
O185        O  0.24938509  0.54835536  0.27174053    -0.87300
O186        O  0.27441235  0.82046789  0.33343313    -0.87700
O187        O  0.05499508  0.71748529  0.20407186    -0.87500
O188        O  0.12975101  0.57636573  0.17452457    -0.87100
O189        O  0.35270394  0.67683921  0.29883371    -0.87500
O190        O  0.21722942  0.65582599  0.39927565    -0.87800
O191        O  0.07781009  0.62125567  0.31681346    -0.89100
Zr192      Zr  0.28272474  0.73199717  0.30284445     2.83100
Zr193      Zr  0.12469230  0.66525351  0.20069446     2.83500
Zr194      Zr  0.15468050  0.77914991  0.28602761     2.84100
Zr195      Zr  0.25260720  0.61788948  0.21703215     2.83400
Zr196      Zr  0.16604805  0.65151386  0.32795831     2.83400
O197        O  0.17224503  0.61690646  0.24939521    -1.09700
O198        O  0.20238830  0.72965248  0.33344124    -1.09200
C199        C  0.25694955  0.67733234  0.41284717     1.05400
C200        C  0.04351336  0.62039891  0.28299616     1.08100
C201        C  0.24212850  0.85592947  0.33429009     1.05600
C202        C  0.36362203  0.63630611  0.27664206     1.06000
C203        C  0.16191416  0.54122698  0.17270011     1.05600
C204        C  0.04336170  0.75747385  0.22608430     1.05100
C205        C  0.12177140  0.73949682  0.40724219     1.05500
C206        C  0.22556469  0.54010749  0.31149816     1.05100
H207        H  0.08787736  0.70366158  0.29275233     0.31700
O208        O  0.12049255  0.70122966  0.27987449    -1.30800
H209        H  0.26632800  0.63318707  0.31762531     0.31800
O210        O  0.24694717  0.65327149  0.29671688    -1.32200
C211        C  0.29202634  0.23593411  0.46040205     0.79100
N212        N  0.34012881  0.22659272  0.46016842    -0.79200
C213        C  0.36440416  0.21631886  0.50115525     0.81500
N214        N  0.34009936  0.21663916  0.54388857    -0.79200
C215        C  0.29200648  0.22815183  0.54562355     0.81600
N216        N  0.26714720  0.23668837  0.50345656    -0.80900
C217        C  0.06793142  0.08388791  0.49898239     0.79100
N218        N  0.08265713  0.10293735  0.54288046    -0.79200
C219        C  0.11023015  0.14439702  0.54567831     0.81500
N220        N  0.12419466  0.16624694  0.50264865    -0.79200
C221        C  0.11017711  0.14612213  0.45801775     0.81600
N222        N  0.08243113  0.10547198  0.45753811    -0.80900
O223        O  0.20654014  0.07442467  0.83831237    -0.87600
O224        O  0.13925747  0.20764108  0.60132696    -0.87800
O225        O  0.07073029  0.12644008  0.74589827    -0.89500
O226        O  0.19487314  0.05471531  0.68389833    -0.88200
O227        O  0.27332835  0.08207524  0.67404304    -0.87800
O228        O  0.05309590  0.19390147  0.79406863    -0.89200
O229        O  0.12844753  0.13099724  0.63112028    -0.87700
O230        O  0.15682553  0.05817190  0.77181275    -0.87300
Zr231      Zr  0.15517345  0.12666532  0.71930937     2.84300
O232        O  0.20515461  0.17287745  0.67085618    -1.09200
O233        O  0.15745964  0.16241344  0.79874927    -1.10000
C234        C  0.17808030  0.04689278  0.81173088     1.05500
C235        C  0.12702171  0.16234274  0.59578343     1.05400
C236        C  0.04203506  0.15360130  0.77191392     1.08400
C237        C  0.23967552  0.04798682  0.67133771     1.06200
H238        H  0.09260059  0.20332823  0.70656836     0.31700
O239        O  0.12476961  0.20562472  0.72062910    -1.30200
H240        H  0.24598101  0.09105366  0.75780027     0.31400
O241        O  0.23320295  0.12355098  0.75578414    -1.31900
O242        O  0.19394847  0.33792101  0.67849192    -0.87600
O243        O  0.27317267  0.20213688  0.90399423    -0.89100
O244        O  0.05683268  0.27685733  0.75530000    -0.87700
O245        O  0.28856680  0.19421415  0.62214441    -0.87800
O246        O  0.35154287  0.13471167  0.74988481    -0.87500
O247        O  0.12011890  0.21708479  0.88400892    -0.87300
O248        O  0.21623844  0.35623916  0.82173516    -0.87600
O249        O  0.34295827  0.28468581  0.75777662    -0.87100
O250        O  0.13652929  0.33079959  0.82694662    -0.88200
O251        O  0.35548185  0.21536841  0.71062653    -0.87300
O252        O  0.08545639  0.28357408  0.67709327    -0.87700
O253        O  0.18414265  0.16753921  0.90484468    -0.87500
O254        O  0.32350600  0.12934899  0.82832839    -0.87100
O255        O  0.22878707  0.24872060  0.60168466    -0.87500
O256        O  0.24693697  0.35944170  0.74072296    -0.87800
O257        O  0.28746737  0.27837917  0.87426986    -0.89100
Zr258      Zr  0.17372097  0.25261285  0.67175804     2.83100
Zr259      Zr  0.23627785  0.15876075  0.83421623     2.83500
Zr260      Zr  0.12647702  0.24266583  0.79954768     2.84100
Zr261      Zr  0.28244351  0.16861376  0.70598080     2.83400
Zr262      Zr  0.25792833  0.28486601  0.78648584     2.84200
O263        O  0.28624139  0.20458800  0.78476160    -1.09700
O264        O  0.17901638  0.28591716  0.75106478    -1.09200
C265        C  0.21754800  0.36916368  0.70542143     1.05400
C266        C  0.28756582  0.24671334  0.90956348     1.08100
C267        C  0.05042137  0.28705287  0.70993003     1.05600
C268        C  0.26747909  0.22344136  0.59257608     1.06000
C269        C  0.35792689  0.12541471  0.79536720     1.05600
C270        C  0.14432855  0.19055488  0.91392005     1.05100
C271        C  0.17073095  0.36426181  0.83109133     1.05500
C272        C  0.36893610  0.25590759  0.73033713     1.05100
H273        H  0.20276116  0.25370043  0.86580315     0.31700
O274        O  0.20495046  0.23911619  0.83361321    -1.30800
H275        H  0.27494730  0.26933520  0.68583934     0.31800
O276        O  0.25376207  0.25015962  0.70606845    -1.32200
C277        C  0.27646275  0.66034313  0.45799260     0.79100
N278        N  0.27123327  0.68500699  0.50106703    -0.79200
C279        C  0.28786958  0.66452348  0.54255142     0.81500
N280        N  0.30718118  0.61928498  0.54065286    -0.79200
C281        C  0.31144208  0.59431905  0.49771883     0.81600
N282        N  0.29550984  0.61527322  0.45672226    -0.80900
C283        C  0.05758902  0.80908933  0.50707347     0.79100
N284        N  0.07357172  0.79306815  0.46251990    -0.79200
C285        C  0.10455731  0.75464004  0.45816849     0.81500
N286        N  0.12107672  0.73303822  0.50049915    -0.79200
C287        C  0.10576601  0.75020225  0.54586507     0.81600
N288        N  0.07425849  0.78763245  0.54766075    -0.80900
C289        C  0.14425081  0.46825244  0.65923042     0.79100
N290        N  0.15998494  0.42445974  0.67337019    -0.79200
C291        C  0.20327724  0.41916336  0.69657350     0.81500
N292        N  0.23166043  0.45890667  0.70718598    -0.79200
C293        C  0.21545020  0.50315428  0.69272562     0.81600
N294        N  0.17240242  0.50716066  0.66952508    -0.80900
C295        C  0.09815631  0.46479248  0.88906651     0.79100
N296        N  0.11395703  0.42011349  0.87388292    -0.79200
C297        C  0.15617745  0.41522351  0.84793406     0.81500
N298        N  0.18170446  0.45708209  0.83531475    -0.79200
C299        C  0.16485730  0.50242260  0.85034555     0.81600
N300        N  0.12388782  0.50458878  0.87705298    -0.80900
O301        O  0.13101467  0.70061405  0.88343029    -0.87600
O302        O  0.35911928  0.78074896  0.74060410    -0.87800
O303        O  0.27671675  0.72156134  0.90248408    -0.89500
O304        O  0.21246510  0.84548399  0.83084324    -0.88200
O305        O  0.15448142  0.85238253  0.77022716    -0.87800
O306        O  0.28883718  0.64414898  0.87249498    -0.89200
O307        O  0.33002695  0.79196783  0.81850131    -0.87700
O308        O  0.19100815  0.75756102  0.90100625    -0.87300
Zr309      Zr  0.24301788  0.76141836  0.82952554     2.84300
O310        O  0.23615106  0.79009756  0.74949878    -1.09200
O311        O  0.21444439  0.67995988  0.83351396    -1.10000
C312        C  0.15296904  0.73204188  0.91154302     1.05500
C313        C  0.36508630  0.79318008  0.78572425     1.05400
C314        C  0.28932979  0.67663823  0.90803476     1.08400
C315        C  0.17902130  0.86855870  0.80733496     1.06200
H316        H  0.32456241  0.71076178  0.79370649     0.31700
O317        O  0.29200974  0.71198181  0.78056629    -1.30200
H318        H  0.14104759  0.77052639  0.81730354     0.31400
O319        O  0.16293489  0.75153956  0.79706770    -1.31900
O320        O  0.29473356  0.71197516  0.61585825    -0.87600
O321        O  0.06368214  0.63453324  0.76084307    -0.89100
O322        O  0.34637022  0.63389289  0.75362323    -0.87700
O323        O  0.19577176  0.85343056  0.68145221    -0.87800
O324        O  0.06964341  0.77454075  0.74220049    -0.87500
O325        O  0.22684023  0.55836594  0.81996415    -0.87300
O326        O  0.23220953  0.58172308  0.66931443    -0.87600
O327        O  0.14261790  0.69160846  0.59982245    -0.87100
O328        O  0.26406477  0.55560362  0.74079363    -0.88200
O329        O  0.12584995  0.76820549  0.63004557    -0.87300
O330        O  0.36233057  0.69765893  0.70248068    -0.87700
O331        O  0.14863344  0.58487221  0.83079815    -0.87500
O332        O  0.06204173  0.70946984  0.79342073    -0.87100
O333        O  0.27521680  0.82912083  0.67206629    -0.87500
O334        O  0.23086689  0.65841694  0.60164031    -0.87800
O335        O  0.09205216  0.62578266  0.68259783    -0.89100
Zr336      Zr  0.28816101  0.74374209  0.70048465     2.83100
Zr337      Zr  0.13679424  0.66923810  0.80035293     2.83500
Zr338      Zr  0.26412794  0.63169727  0.78502545     2.84100
Zr339      Zr  0.15619773  0.78145689  0.71672118     2.83400
Zr340      Zr  0.18010017  0.65454432  0.67164522     2.84200
O341        O  0.13106952  0.70075414  0.72166896    -1.09700
O342        O  0.25846818  0.66346243  0.70580997    -1.09200
C343        C  0.26995901  0.68083775  0.58943099     1.05400
C344        C  0.05679038  0.62423749  0.71523381     1.08100
C345        C  0.37355349  0.65862378  0.72467029     1.05600
C346        C  0.24071067  0.86164148  0.66949110     1.06000
C347        C  0.04562871  0.74610486  0.77106501     1.05600
C348        C  0.18202861  0.55120422  0.83251313     1.05100
C349        C  0.24126773  0.54840938  0.70050808     1.05500
C350        C  0.12617951  0.73519514  0.59467867     1.05100
H351        H  0.17253954  0.59001134  0.74754209     0.31700
O352        O  0.18515365  0.62278254  0.74975154    -1.30800
H353        H  0.21073754  0.74799885  0.63617585     0.31800
O354        O  0.20923475  0.73560785  0.66878824    -1.32200
C355        C  0.64064178  0.46930819  0.39227720     0.79100
N356        N  0.65186372  0.50956134  0.36801220    -0.79200
C357        C  0.67502060  0.50663200  0.32513366     0.81500
N358        N  0.68734775  0.46277244  0.30528390    -0.79200
C359        C  0.67789605  0.42216467  0.33127848     0.81600
N360        N  0.65446246  0.42547877  0.37438669    -0.80900
C361        C  0.81333402  0.46214292  0.10646641     0.79100
N362        N  0.79221552  0.50459439  0.12001749    -0.79200
C363        C  0.75335744  0.50611043  0.15008453     0.81500
N364        N  0.73500200  0.46269189  0.16776669    -0.79200
C365        C  0.75681706  0.41881999  0.15477903     0.81600
N366        N  0.79608099  0.41975670  0.12465786    -0.80900
C367        C  0.45979144  0.55042613  0.31143466     0.79100
N368        N  0.41523940  0.56971475  0.30252500    -0.79200
C369        C  0.41168540  0.61603150  0.28627674     0.81500
N370        N  0.45271179  0.64317611  0.27912306    -0.79200
C371        C  0.49706562  0.62318084  0.28719340     0.81600
N372        N  0.50016658  0.57723739  0.30294956    -0.80900
C373        C  0.45219456  0.85343659  0.14790125     0.79100
N374        N  0.49388491  0.84037767  0.16986200    -0.79200
C375        C  0.49457956  0.80878990  0.20640205     0.81500
N376        N  0.45100785  0.78956864  0.22266267    -0.79200
C377        C  0.40755735  0.80253876  0.20084364     0.81600
N378        N  0.40907973  0.83368732  0.16275815    -0.80900
O379        O  0.69425248  0.84573106  0.17125643    -0.87600
O380        O  0.77411449  0.70488503  0.39767772    -0.87800
O381        O  0.71003484  0.86305732  0.31811848    -0.89500
O382        O  0.83944750  0.79077948  0.25642185    -0.88200
O383        O  0.84933149  0.72853518  0.19942901    -0.87800
O384        O  0.63204688  0.83371666  0.32841878    -0.89200
O385        O  0.78459423  0.78264879  0.37051631    -0.87700
O386        O  0.75126934  0.86399283  0.23078427    -0.87300
Zr387      Zr  0.75341605  0.79265833  0.28343887     2.84300
O388        O  0.78300965  0.71324097  0.27519084    -1.09200
O389        O  0.67175566  0.79415413  0.25445276    -1.10000
C390        C  0.72598499  0.87410022  0.19240973     1.05500
C391        C  0.78675615  0.74965640  0.40463893     1.05400
C392        C  0.66476854  0.86899881  0.32987480     1.08400
C393        C  0.86455939  0.76503920  0.22523349     1.06200
H394        H  0.70115682  0.75708195  0.36458275     0.31700
O395        O  0.70302495  0.74439730  0.33157069    -1.30200
H396        H  0.76560993  0.78009962  0.18172267     0.31400
O397        O  0.74621491  0.75999944  0.20273691    -1.31900
O398        O  0.71175757  0.58143964  0.32836688    -0.87600
O399        O  0.63116737  0.72310043  0.10166360    -0.89100
O400        O  0.61836079  0.71466668  0.38357767    -0.87700
O401        O  0.84897482  0.64438268  0.23503469    -0.87800
O402        O  0.77262166  0.70739732  0.10889215    -0.87500
O403        O  0.55045613  0.77848315  0.26513735    -0.87300
O404        O  0.57015301  0.62455570  0.24562713    -0.87600
O405        O  0.69205547  0.56156509  0.17964459    -0.87100
O406        O  0.55278867  0.68837729  0.29871190    -0.88200
O407        O  0.76871168  0.59186422  0.16541600    -0.87300
O408        O  0.68397889  0.66494001  0.39784713    -0.87700
O409        O  0.57809410  0.79180092  0.18771565    -0.87500
O410        O  0.70812001  0.76027706  0.10201074    -0.87100
O411        O  0.82264560  0.63623697  0.31390281    -0.87500
O412        O  0.66133276  0.56134919  0.26348443    -0.87800
O413        O  0.62608722  0.64424297  0.12676324    -0.89100
Zr414      Zr  0.73670931  0.66561530  0.32641209     2.83100
Zr415      Zr  0.66409518  0.76251547  0.17556755     2.83500
Zr416      Zr  0.62273926  0.74464631  0.30168472     2.84100
Zr417      Zr  0.77729781  0.67972662  0.19472983     2.83400
Zr418      Zr  0.65219890  0.63303560  0.21486166     2.84200
O419        O  0.69733440  0.68375389  0.16666374    -1.09700
O420        O  0.65676538  0.66624269  0.29508254    -1.09200
C421        C  0.68485625  0.55196133  0.30276723     1.05400
C422        C  0.62241957  0.67756403  0.09322804     1.08100
C423        C  0.64342079  0.68558454  0.40978607     1.05600
C424        C  0.85601200  0.63247355  0.27989726     1.06000
C425        C  0.74514237  0.73750672  0.08534126     1.05600
C426        C  0.54394398  0.79193106  0.22108197     1.05100
C427        C  0.54244777  0.64790004  0.27588965     1.05500
C428        C  0.73662273  0.55616344  0.16593332     1.05100
H429        H  0.58501089  0.70781366  0.20937547     0.31700
O430        O  0.61779385  0.71055298  0.22194870    -1.30800
H431        H  0.74630012  0.60134310  0.24844713     0.31800
O432        O  0.73193606  0.63315022  0.24705238    -1.32200
C433        C  0.62657358  0.68003148  0.54199200     0.79100
N434        N  0.64903755  0.68416943  0.49831747    -0.79200
C435        C  0.62280583  0.67525630  0.45693686     0.81500
N436        N  0.57539325  0.66059306  0.45943247    -0.79200
C437        C  0.55387082  0.65544533  0.50345653     0.81600
N438        N  0.57955492  0.66622149  0.54411902    -0.80900
C439        C  0.85274777  0.82430186  0.49714817     0.79100
N440        N  0.83636380  0.80327465  0.45529445    -0.79200
C441        C  0.80550558  0.76520460  0.45455043     0.81500
N442        N  0.79040849  0.74646547  0.49873018    -0.79200
C443        C  0.80618132  0.76769400  0.54259791     0.81600
N444        N  0.83664377  0.80727231  0.54077751    -0.80900
C445        C  0.44865456  0.55885314  0.68766003     0.79100
N446        N  0.49501654  0.57621673  0.69331868    -0.79200
C447        C  0.50172815  0.62382639  0.70777868     0.81500
N448        N  0.46259801  0.65306480  0.71629945    -0.79200
C449        C  0.41722584  0.63420774  0.71081411     0.81600
N450        N  0.41091630  0.58788546  0.69690264    -0.80900
C451        C  0.45452512  0.84696082  0.87029943     0.79100
N452        N  0.49894910  0.83169587  0.85334772    -0.79200
C453        C  0.50258822  0.80617329  0.80994537     0.81500
N454        N  0.45964374  0.79428267  0.78496095    -0.79200
C455        C  0.41487027  0.80937970  0.80323579     0.81600
N456        N  0.41412387  0.83549597  0.84481074    -0.80900
C457        C  0.60665966  0.45560252  0.64144968     0.79100
N458        N  0.63029763  0.49883199  0.64603737    -0.79200
C459        C  0.67474424  0.50176212  0.66740678     0.81500
N460        N  0.69598897  0.46113399  0.68490396    -0.79200
C461        C  0.67241073  0.41797324  0.67853443     0.81600
N462        N  0.62794238  0.41580643  0.65849864    -0.80900
C463        C  0.81957604  0.45987053  0.89418498     0.79100
N464        N  0.79647092  0.41808519  0.88132821    -0.79200
C465        C  0.75672267  0.41738143  0.85258369     0.81500
N466        N  0.73897352  0.46098408  0.83578459    -0.79200
C467        C  0.76228585  0.50437546  0.84833527     0.81600
N468        N  0.80296188  0.50281568  0.87687594    -0.80900
O469        O  0.79377160  0.70338125  0.88286486    -0.87600
O470        O  0.55897158  0.77599683  0.74759238    -0.87800
O471        O  0.71769791  0.83431517  0.83521579    -0.89500
O472        O  0.63887676  0.71339634  0.89920815    -0.88200
O473        O  0.62565851  0.63607788  0.86866384    -0.87800
O474        O  0.75470732  0.86161977  0.76572002    -0.89200
O475        O  0.58864853  0.78737102  0.82515065    -0.87700
O476        O  0.72685674  0.75174006  0.89817126    -0.87300
Zr477      Zr  0.67524135  0.75536526  0.82929046     2.84300
O478        O  0.62585522  0.70705000  0.77980269    -1.09200
O479        O  0.75394967  0.75256800  0.79470794    -1.10000
C480        C  0.76715111  0.73196174  0.90992254     1.05500
C481        C  0.55319799  0.78886636  0.79300907     1.05400
C482        C  0.73058532  0.86792310  0.80527070     1.08400
C483        C  0.62439839  0.66889736  0.90445853     1.06200
H484        H  0.66533990  0.82107593  0.75601615     0.31700
O485        O  0.67920614  0.78912518  0.75220423    -1.30200
H486        H  0.71066480  0.66311276  0.86272251     0.31400
O487        O  0.70881983  0.67640592  0.83057161    -1.31900
O488        O  0.62663308  0.71822272  0.61715929    -0.87600
O489        O  0.85932815  0.63987389  0.75493560    -0.89100
O490        O  0.71518874  0.86027074  0.68539308    -0.87700
O491        O  0.57722650  0.61887694  0.74769596    -0.87800
O492        O  0.70176958  0.55932508  0.81701440    -0.87500
O493        O  0.84410453  0.79095474  0.74623176    -0.87300
O494        O  0.77783070  0.70533933  0.59803185    -0.87600
O495        O  0.71787409  0.57569600  0.66021352    -0.87100
O496        O  0.78626105  0.78321193  0.62846522    -0.88200
O497        O  0.66696364  0.56094314  0.72535015    -0.87300
O498        O  0.63779051  0.82949815  0.67473921    -0.87700
O499        O  0.85533870  0.72546695  0.79629803    -0.87500
O500        O  0.78017677  0.58747027  0.82622559    -0.87100
O501        O  0.56123331  0.68450830  0.69920355    -0.87500
O502        O  0.69000817  0.66654352  0.59737766    -0.87800
O503        O  0.83178293  0.63133507  0.67615474    -0.89100
Zr504      Zr  0.62961541  0.74200002  0.70206988     2.83100
Zr505      Zr  0.78713568  0.67350853  0.79738429     2.83500
Zr506      Zr  0.75906682  0.78861859  0.71684415     2.84100
Zr507      Zr  0.65914265  0.62863053  0.78126863     2.83400
Zr508      Zr  0.74375930  0.66060514  0.66784294     2.84200
O509        O  0.73825005  0.62648606  0.74616447    -1.09700
O510        O  0.70895098  0.73940064  0.66836623    -1.09200
C511        C  0.65058371  0.68998902  0.58786627     1.05400
C512        C  0.86645167  0.62896529  0.70937358     1.08100
C513        C  0.66973524  0.86542493  0.67371990     1.05600
C514        C  0.55025311  0.64326587  0.71837726     1.06000
C515        C  0.74691716  0.55333191  0.82914862     1.05600
C516        C  0.86928836  0.76395347  0.77504240     1.05100
C517        C  0.78884455  0.75086724  0.59271693     1.05500
C518        C  0.68905947  0.54890261  0.68569812     1.05100
H519        H  0.82328820  0.71201884  0.70610464     0.31700
O520        O  0.79075534  0.70960724  0.71902804    -1.30800
H521        H  0.64423787  0.64294377  0.68113815     0.31800
O522        O  0.66409752  0.66308135  0.70249629    -1.32200
C523        C  0.45258495  0.31314567  0.37107951     0.79100
N524        N  0.41102878  0.30168485  0.34676606    -0.79200
C525        C  0.41239556  0.28277930  0.30083620     0.81500
N526        N  0.45594831  0.27405485  0.27871122    -0.79200
C527        C  0.49795579  0.28669196  0.30232003     0.81600
N528        N  0.49597597  0.30495039  0.34854211    -0.80900
C529        C  0.45517123  0.05345334  0.14020633     0.79100
N530        N  0.41304041  0.06926824  0.16037960    -0.79200
C531        C  0.41241544  0.10277547  0.19689879     0.81500
N532        N  0.45659856  0.12106681  0.21448978    -0.79200
C533        C  0.50045341  0.10593303  0.19395635     0.81600
N534        N  0.49857743  0.07261896  0.15640446    -0.80900
O535        O  0.79022699  0.21649337  0.11745592    -0.87600
O536        O  0.55687737  0.14025552  0.25427355    -0.87800
O537        O  0.70570705  0.08273291  0.16584497    -0.89500
O538        O  0.63462398  0.20957319  0.10147173    -0.88200
O539        O  0.62218417  0.28639167  0.13332000    -0.87800
O540        O  0.75641234  0.06326183  0.22961005    -0.89200
O541        O  0.58474664  0.13091844  0.17590528    -0.87700
O542        O  0.72320836  0.16771746  0.10009427    -0.87300
Zr543      Zr  0.67112910  0.16527693  0.16973607     2.84300
O544        O  0.62196995  0.21245487  0.22010355    -1.09200
O545        O  0.75070454  0.16921242  0.20365279    -1.10000
C546        C  0.76419023  0.18765476  0.08945879     1.05500
C547        C  0.55037769  0.12719408  0.20904046     1.05400
C548        C  0.73421700  0.05359776  0.18932463     1.08400
C549        C  0.62104147  0.25432211  0.09710022     1.06200
H550        H  0.66283678  0.09845018  0.24328936     0.31700
O551        O  0.67585312  0.13102102  0.24653441    -1.30200
H552        H  0.70699460  0.25832113  0.13891635     0.31400
O553        O  0.70514870  0.24489382  0.17107518    -1.31900
O554        O  0.63464157  0.19230454  0.38378240    -0.87600
O555        O  0.85628791  0.28334646  0.24760604    -0.89100
O556        O  0.71505786  0.06228755  0.31457825    -0.87700
O557        O  0.56959140  0.29450818  0.25339722    -0.87800
O558        O  0.69653002  0.36282809  0.18663751    -0.87500
O559        O  0.83874533  0.13534445  0.25525835    -0.87300
O560        O  0.77411249  0.21600845  0.40129177    -0.87600
O561        O  0.71303144  0.34584972  0.33725537    -0.87100
O562        O  0.78169985  0.13827786  0.37051623    -0.88200
O563        O  0.66338383  0.36329649  0.27187633    -0.87300
O564        O  0.63745569  0.09089351  0.32590301    -0.87700
O565        O  0.85794915  0.19986085  0.20621122    -0.87500
O566        O  0.77484855  0.33548111  0.17581496    -0.87100
O567        O  0.55903362  0.23043994  0.30546553    -0.87500
O568        O  0.69450170  0.24725721  0.40699836    -0.87800
O569        O  0.82848435  0.29267871  0.32613749    -0.89100
Zr570      Zr  0.62755820  0.17739426  0.29750638     2.83100
Zr571      Zr  0.78502308  0.24853454  0.20265705     2.83500
Zr572      Zr  0.75500819  0.13439700  0.28188708     2.84100
Zr573      Zr  0.65404227  0.29184111  0.22053173     2.83400
Zr574      Zr  0.74036301  0.26187830  0.33231217     2.84200
O575        O  0.73435511  0.29396960  0.25359248    -1.09700
O576        O  0.70631776  0.18284606  0.32985215    -1.09200
C577        C  0.66065829  0.21570081  0.41575284     1.05400
C578        C  0.86335837  0.29467596  0.29324749     1.08100
C579        C  0.67024422  0.05627911  0.32728855     1.05600
C580        C  0.54495719  0.26941441  0.28478535     1.06000
C581        C  0.74153877  0.36949388  0.17407129     1.05600
C582        C  0.86780077  0.16046392  0.22860775     1.05100
C583        C  0.78432732  0.17042094  0.40648036     1.05500
C584        C  0.68644142  0.37426681  0.31148617     1.05100
H585        H  0.81968810  0.21162515  0.29508718     0.31700
O586        O  0.78742148  0.21345274  0.28129671    -1.30800
H587        H  0.63948765  0.27763533  0.32172016     0.31800
O588        O  0.65938398  0.25831255  0.29977935    -1.32200
C589        C  0.44295250  0.30999065  0.63816633     0.79100
N590        N  0.40719925  0.28743195  0.66217180    -0.79200
C591        C  0.41239449  0.27468603  0.70864115     0.81500
N592        N  0.45660295  0.27715143  0.73055684    -0.79200
C593        C  0.49525045  0.29518114  0.70535634     0.81600
N594        N  0.48805337  0.31326085  0.65955461    -0.80900
C595        C  0.45792726  0.06750785  0.86653228     0.79100
N596        N  0.41299647  0.08130978  0.85083222    -0.79200
C597        C  0.40842572  0.10975023  0.81081792     0.81500
N598        N  0.45038766  0.12589376  0.78762811    -0.79200
C599        C  0.49581720  0.11270421  0.80455566     0.81600
N600        N  0.49801605  0.08355499  0.84309931    -0.80900
C601        C  0.64577823  0.21002363  0.54908307     0.79100
N602        N  0.62421051  0.16601353  0.55196072    -0.79200
C603        C  0.61517408  0.13839851  0.51217642     0.81500
N604        N  0.63061056  0.15502089  0.46889852    -0.79200
C605        C  0.65242753  0.19922172  0.46501702     0.81600
N606        N  0.66048416  0.22750670  0.50547062    -0.80900
C607        C  0.84578426  0.09727968  0.50340606     0.79100
N608        N  0.82978458  0.11907622  0.54489063    -0.79200
C609        C  0.79972656  0.15747262  0.54493506     0.81500
N610        N  0.78510894  0.17559051  0.50037641    -0.79200
C611        C  0.80056076  0.15357018  0.45689464     0.81600
N612        N  0.83022384  0.11384119  0.45943188    -0.80900
O613        O  0.78416374  0.21486844  0.88745505    -0.87600
O614        O  0.54917127  0.14639789  0.74324738    -0.87800
O615        O  0.63561337  0.20536390  0.90261363    -0.89500
O616        O  0.68317427  0.07929418  0.82143055    -0.88200
O617        O  0.73809639  0.05765254  0.76164372    -0.87800
O618        O  0.62691054  0.28292518  0.87493600    -0.89200
O619        O  0.57952182  0.13484693  0.82010907    -0.87700
O620        O  0.72077316  0.16047419  0.89757410    -0.87300
Zr621      Zr  0.66638138  0.16500105  0.82895363     2.84300
O622        O  0.67000909  0.13376093  0.74965399    -1.09200
O623        O  0.70060683  0.24364032  0.83497436    -1.10000
C624        C  0.75981670  0.18286750  0.91171052     1.05500
C625        C  0.54421510  0.13278754  0.78774978     1.05400
C626        C  0.62489883  0.25053035  0.90947619     1.08400
C627        C  0.70752636  0.04780698  0.79602691     1.06200
H628        H  0.58516065  0.21815756  0.79476052     0.31700
O629        O  0.61782036  0.21491857  0.78211961    -1.30200
H630        H  0.76674390  0.14409650  0.81690850     0.31400
O631        O  0.74696123  0.16528309  0.79752302    -1.31900
O632        O  0.61766699  0.22527145  0.62642747    -0.87600
O633        O  0.85397860  0.27693198  0.76282704    -0.89100
O634        O  0.56942782  0.30226379  0.75225793    -0.87700
O635        O  0.70434756  0.06163187  0.68246006    -0.87800
O636        O  0.83316549  0.13803077  0.74234200    -0.87500
O637        O  0.69425758  0.36279647  0.82318252    -0.87300
O638        O  0.71682691  0.34664540  0.67259419    -0.87600
O639        O  0.77104309  0.21935405  0.60198407    -0.87100
O640        O  0.66390502  0.36166639  0.73646401    -0.88200
O641        O  0.77863012  0.14134245  0.62888662    -0.87300
O642        O  0.55530391  0.23791459  0.69857968    -0.87700
O643        O  0.77134804  0.33270823  0.83473065    -0.87500
O644        O  0.85358576  0.20103910  0.79565330    -0.87100
O645        O  0.62654628  0.09050464  0.67339058    -0.87500
O646        O  0.68854359  0.26197327  0.60223793    -0.87800
O647        O  0.82664997  0.28348871  0.68435988    -0.89100
Zr648      Zr  0.62085858  0.18048710  0.70208690     2.83100
Zr649      Zr  0.78008279  0.24572172  0.80391847     2.83500
Zr650      Zr  0.65272082  0.29250340  0.78676835     2.84100
Zr651      Zr  0.74870464  0.13306750  0.71615438     2.83400
Zr652      Zr  0.73768144  0.26100588  0.67448239     2.84200
O653        O  0.78255097  0.21145580  0.72381715    -1.09700
O654        O  0.65847801  0.25763217  0.70812515    -1.09200
C655        C  0.64999906  0.23642474  0.59439706     1.05400
C656        C  0.86129460  0.28607276  0.71730671     1.08100
C657        C  0.54374499  0.27851629  0.71950715     1.05600
C658        C  0.65875776  0.05486853  0.67177808     1.06000
C659        C  0.86303491  0.16313121  0.76959055     1.05600
C660        C  0.73923052  0.36796838  0.83598511     1.05100
C661        C  0.68812632  0.37367243  0.69851655     1.05500
C662        C  0.78168158  0.17413362  0.59476134     1.05100
H663        H  0.74796492  0.32499090  0.75261224     0.31700
O664        O  0.73312448  0.29317922  0.75390200    -1.30800
H665        H  0.69707428  0.16871640  0.63678272     0.31800
O666        O  0.69989269  0.18220636  0.66938684    -1.32200
O667        O  0.11816373  0.20632355  0.12253274    -0.87600
O668        O  0.35697076  0.13304212  0.25774532    -0.87800
O669        O  0.27269578  0.19810403  0.10096586    -0.89500
O670        O  0.21256528  0.06870373  0.16737438    -0.88200
O671        O  0.16498223  0.05004005  0.23392965    -0.87800
O672        O  0.28454721  0.27489490  0.13340235    -0.89200
O673        O  0.32765986  0.12292173  0.17956542    -0.87700
O674        O  0.18310846  0.15736298  0.10154709    -0.87300
Zr675      Zr  0.23991387  0.15332435  0.17101963     2.84300
O676        O  0.23698432  0.12030919  0.24955693    -1.09200
O677        O  0.20684131  0.23251691  0.17231009    -1.10000
C678        C  0.14204774  0.17859966  0.09263533     1.05500
C679        C  0.36268479  0.12087756  0.21251472     1.05400
C680        C  0.28540306  0.24329149  0.09691621     1.08400
C681        C  0.18652760  0.03963901  0.19339090     1.06200
H682        H  0.32127556  0.20533084  0.20858292     0.31700
O683        O  0.28865023  0.20256149  0.22143626    -1.30200
H684        H  0.13986722  0.13418592  0.18605206     0.31400
O685        O  0.16074700  0.15452319  0.20633012    -1.31900
O686        O  0.29060496  0.20145978  0.38273654    -0.87600
O687        O  0.05766453  0.27012661  0.24795126    -0.89100
O688        O  0.34151513  0.28710097  0.25188772    -0.87700
O689        O  0.20036376  0.05097285  0.32026973    -0.87800
O690        O  0.07419641  0.11703937  0.25994629    -0.87500
O691        O  0.21315577  0.35089742  0.18773630    -0.87300
O692        O  0.20800633  0.33210523  0.33695242    -0.87600
O693        O  0.14041970  0.20800847  0.40443967    -0.87100
O694        O  0.25830158  0.35335104  0.27361590    -0.88200
O695        O  0.12917912  0.13062595  0.37314312    -0.87300
O696        O  0.35522954  0.22189054  0.30165048    -0.87700
O697        O  0.13610342  0.31955020  0.17638162    -0.87500
O698        O  0.05663887  0.18339724  0.21322337    -0.87100
O699        O  0.27863464  0.07952324  0.32934072    -0.87500
O700        O  0.22740841  0.25187943  0.40540111    -0.87800
O701        O  0.08728884  0.27987280  0.32574195    -0.89100
Zr702      Zr  0.28657368  0.16724868  0.29993706     2.83100
Zr703      Zr  0.12825720  0.23412303  0.20646748     2.83500
Zr704      Zr  0.25713105  0.28158963  0.22123293     2.84100
Zr705      Zr  0.15892039  0.12175196  0.28594494     2.83400
Zr706      Zr  0.17486048  0.24975537  0.33431764     2.84200
O707        O  0.12609638  0.20043655  0.28493636    -1.09700
O708        O  0.25315206  0.24599766  0.29880198    -1.09200
C709        C  0.26796666  0.23003166  0.41324567     1.05400
C710        C  0.05209718  0.28270061  0.29315455     1.08100
C711        C  0.36738368  0.26218783  0.28194154     1.05600
C712        C  0.24554669  0.04462938  0.33193448     1.06000
C713        C  0.04558236  0.14343644  0.23418988     1.05600
C714        C  0.16807640  0.35508729  0.17492173     1.05100
C715        C  0.23607741  0.36203096  0.31407448     1.05500
C716        C  0.12764395  0.16307260  0.40895983     1.05100
H717        H  0.16431086  0.31492040  0.25953538     0.31700
O718        O  0.17769297  0.28264991  0.25648571    -1.30800
H719        H  0.21219764  0.15738520  0.36679660     0.31800
O720        O  0.20911567  0.17041774  0.33456645    -1.32200
C721        C  0.46585415  0.04323572  0.91362956    -0.06400
C722        C  0.51364725  0.04337061  0.93256798    -0.06300
C723        C  0.52272371  0.03302112  0.98087581    -0.24500
C724        C  0.48408645  0.02286844  0.01175722     0.17700
C725        C  0.43632296  0.01719334  0.99255562     0.14900
C726        C  0.42740027  0.02683798  0.94305157    -0.19500
C727        C  0.39787881  0.00747782  0.02450715    -0.21300
C728        C  0.40555078  0.01167684  0.07486198    -0.13900
C729        C  0.45175899  0.02556930  0.09352568     0.02800
C730        C  0.49176272  0.02516331  0.06210658    -0.26000
H731        H  0.54402349  0.05617407  0.91132206     0.07800
H732        H  0.55939098  0.03766418  0.99510343     0.11500
H733        H  0.39042147  0.02601887  0.92898418     0.11400
H734        H  0.36120405  0.00136923  0.01079611     0.11100
H735        H  0.37416706  0.00948260  0.09867807     0.11700
H736        H  0.52784247  0.03401382  0.07611317     0.13600
C737        C  0.42503099  0.34746477  0.60497973    -0.06400
C738        C  0.45544178  0.37039485  0.57155601    -0.06300
C739        C  0.45536526  0.42148222  0.57028075    -0.24500
C740        C  0.43266644  0.44690589  0.60885513     0.17700
C741        C  0.39587153  0.42306617  0.63535188     0.14900
C742        C  0.38610633  0.37458702  0.62465427    -0.19500
C743        C  0.37641523  0.44439908  0.67757280    -0.21300
C744        C  0.39754128  0.48662795  0.69652623    -0.13900
C745        C  0.43561068  0.50986702  0.67154431     0.02800
C746        C  0.45044833  0.49186113  0.62595551    -0.26000
H747        H  0.48178966  0.34954204  0.55073679     0.07800
H748        H  0.47905500  0.44006909  0.54540173     0.11500
H749        H  0.35788250  0.35690723  0.64575839     0.11400
H750        H  0.34813836  0.42631684  0.69820291     0.11100
H751        H  0.38348157  0.50190597  0.73043382     0.11700
H752        H  0.47626890  0.51219593  0.60498129     0.13600
C753        C  0.87335773  0.05136633  0.50848080    -0.06400
C754        C  0.88411978  0.03502649  0.55579520    -0.06300
C755        C  0.89264710  0.98596519  0.56391530    -0.24500
C756        C  0.89191723  0.95281992  0.52469517     0.17700
C757        C  0.89086031  0.97043587  0.47652257     0.14900
C758        C  0.88135111  0.01978873  0.46853013    -0.19500
C759        C  0.89404981  0.93751081  0.43728329    -0.21300
C760        C  0.88975985  0.88787746  0.44542235    -0.13900
C761        C  0.88000515  0.87077130  0.49267010     0.02800
C762        C  0.88641244  0.90275426  0.53268582    -0.26000
H763        H  0.88104774  0.05910471  0.58739920     0.07800
H764        H  0.89570013  0.97356124  0.60103534     0.11500
H765        H  0.87530006  0.03219080  0.43176095     0.11400
H766        H  0.89577112  0.95013443  0.40015609     0.11100
H767        H  0.88824798  0.86362998  0.41379510     0.11700
H768        H  0.88125976  0.88987860  0.56942757     0.13600
C769        C  0.44637509  0.86845000  0.91960549    -0.06400
C770        C  0.39789354  0.87366034  0.93657812    -0.06300
C771        C  0.38811220  0.88064441  0.98589166    -0.24500
C772        C  0.42656149  0.88432755  0.01899206     0.17700
C773        C  0.47509150  0.88668773  0.00159215     0.14900
C774        C  0.48471962  0.87775738  0.95206383    -0.19500
C775        C  0.51329297  0.89350498  0.03472371    -0.21300
C776        C  0.50421392  0.89050363  0.08441188    -0.13900
C777        C  0.45701275  0.87891744  0.10136086     0.02800
C778        C  0.41764509  0.88071269  0.06900482    -0.26000
H779        H  0.36689668  0.86853201  0.91246487     0.07800
H780        H  0.35059336  0.88033492  0.99831949     0.11500
H781        H  0.52162401  0.87368167  0.93981658     0.11400
H782        H  0.55046344  0.89769125  0.02236494     0.11100
H783        H  0.53522831  0.89195059  0.10893320     0.11700
H784        H  0.38089932  0.87373080  0.08179249     0.13600
C785        C  0.45047897  0.34630247  0.41439260    -0.06400
C786        C  0.40458417  0.36704903  0.42443359    -0.06300
C787        C  0.39657710  0.41520557  0.41055855    -0.24500
C788        C  0.43523422  0.44092215  0.38913552     0.17700
C789        C  0.48308452  0.42225926  0.39286550     0.14900
C790        C  0.49026386  0.37815511  0.41601720    -0.19500
C791        C  0.52087031  0.44262729  0.36608753    -0.21300
C792        C  0.51246279  0.48303263  0.33802142    -0.13900
C793        C  0.46566295  0.50348058  0.33555474     0.02800
C794        C  0.42670304  0.48129981  0.36009715    -0.26000
H795        H  0.37323407  0.34388385  0.43092936     0.07800
H796        H  0.35975724  0.42932209  0.41025154     0.11500
H797        H  0.52665982  0.36289744  0.41634225     0.11400
H798        H  0.55618115  0.42551296  0.36456912     0.11100
H799        H  0.54288535  0.49827793  0.31817992     0.11700
H800        H  0.39004744  0.49523231  0.35645262     0.13600
C801        C  0.61121130  0.47357028  0.43582991    -0.06400
C802        C  0.59797457  0.51983692  0.45383665    -0.06300
C803        C  0.57614867  0.52447336  0.49896991    -0.24500
C804        C  0.56772396  0.48319763  0.52618172     0.17700
C805        C  0.57583875  0.43622919  0.50572403     0.14900
C806        C  0.59704058  0.43169457  0.46016649    -0.19500
C807        C  0.56949456  0.39513249  0.53405562    -0.21300
C808        C  0.56470292  0.40139030  0.58417242    -0.13900
C809        C  0.56862562  0.44862202  0.60493907     0.02800
C810        C  0.56020343  0.48858624  0.57582528    -0.26000
H811        H  0.60725853  0.55269949  0.43471252     0.07800
H812        H  0.57107350  0.56026789  0.51483230     0.11500
H813        H  0.60623297  0.39585930  0.44575389     0.11400
H814        H  0.57380005  0.35876417  0.51862445     0.11100
H815        H  0.56706881  0.36947332  0.60657253     0.11700
H816        H  0.56025261  0.52495022  0.59216667     0.13600
C817        C  0.04915460  0.47262312  0.91017386    -0.06400
C818        C  0.03070658  0.52047469  0.91332668    -0.06300
C819        C  0.98124611  0.52872029  0.92035752    -0.24500
C820        C  0.94936164  0.48935058  0.92468645     0.17700
C821        C  0.96821181  0.44163214  0.92777916     0.14900
C822        C  0.01819800  0.43349400  0.92075077    -0.19500
C823        C  0.93613246  0.40245565  0.93320731    -0.21300
C824        C  0.88611979  0.40965900  0.92858103    -0.13900
C825        C  0.86767743  0.45609093  0.91800866     0.02800
C826        C  0.89902920  0.49643297  0.92071613    -0.26000
H827        H  0.05377804  0.55180232  0.90685633     0.07800
H828        H  0.96762077  0.56561470  0.91902765     0.11500
H829        H  0.03207076  0.39663362  0.91956847     0.11400
H830        H  0.94974630  0.36581948  0.93721362     0.11100
H831        H  0.86245872  0.37795178  0.92880120     0.11700
H832        H  0.88513204  0.53255816  0.91410654     0.13600
C833        C  0.50618653  0.63162119  0.50899008    -0.06400
C834        C  0.48773231  0.62552462  0.55638245    -0.06300
C835        C  0.44689493  0.59694929  0.56416143    -0.24500
C836        C  0.42302746  0.57450529  0.52493935     0.17700
C837        C  0.43975573  0.58205841  0.47686677     0.14900
C838        C  0.48194106  0.60973923  0.46905066    -0.19500
C839        C  0.41153331  0.56459496  0.43771282    -0.21300
C840        C  0.36481447  0.54599930  0.44645814    -0.13900
C841        C  0.34530327  0.55284634  0.49343625     0.02800
C842        C  0.37823191  0.55129389  0.53221201    -0.26000
H843        H  0.50520824  0.64231692  0.58799242     0.07800
H844        H  0.43241115  0.59458067  0.60054287     0.11500
H845        H  0.49552078  0.61438361  0.43230564     0.11400
H846        H  0.42302630  0.57086893  0.40085458     0.11100
H847        H  0.34058155  0.54034279  0.41556654     0.11700
H848        H  0.36409844  0.54910119  0.56906956     0.13600
C849        C  0.03186972  0.85608053  0.51318851    -0.06400
C850        C  0.02482877  0.87583693  0.56057622    -0.06300
C851        C  0.02179503  0.92610035  0.56813135    -0.24500
C852        C  0.02474149  0.95692951  0.52831308     0.17700
C853        C  0.02233734  0.93664483  0.48048023     0.14900
C854        C  0.02517833  0.88613583  0.47313937    -0.19500
C855        C  0.02273766  0.96729689  0.44059412    -0.21300
C856        C  0.03242418  0.01669342  0.44758366    -0.13900
C857        C  0.04262586  0.03614700  0.49452446     0.02800
C858        C  0.03490233  0.00681154  0.53519471    -0.26000
H859        H  0.02733108  0.85318639  0.59230731     0.07800
H860        H  0.02155927  0.94081766  0.60510912     0.11500
H861        H  0.02837833  0.87120246  0.43637492     0.11400
H862        H  0.01921918  0.95261620  0.40375574     0.11100
H863        H  0.03587235  0.03875095  0.41551627     0.11700
H864        H  0.04097860  0.02155546  0.57170050     0.13600
C865        C  0.41236409  0.19356047  0.49621823    -0.06400
C866        C  0.43386949  0.19066701  0.44968210    -0.06300
C867        C  0.47449773  0.16210710  0.44145466    -0.24500
C868        C  0.49587743  0.13789128  0.48010802     0.17700
C869        C  0.47598291  0.14186860  0.52753892     0.14900
C870        C  0.43351113  0.16886406  0.53521066    -0.19500
C871        C  0.50077084  0.12093681  0.56652546    -0.21300
C872        C  0.54806619  0.10350993  0.55926400    -0.13900
C873        C  0.57048074  0.10850620  0.51342605     0.02800
C874        C  0.54037221  0.11495392  0.47300251    -0.26000
H875        H  0.41849087  0.20938474  0.41893740     0.07800
H876        H  0.49016645  0.16033316  0.40518262     0.11500
H877        H  0.41732831  0.17086959  0.57124621     0.11400
H878        H  0.48578187  0.12233724  0.60307092     0.11100
H879        H  0.56986768  0.09536904  0.59098277     0.11700
H880        H  0.55657485  0.11626339  0.43704521     0.13600
C881        C  0.86025241  0.46363603  0.08018294    -0.06400
C882        C  0.88178094  0.50889255  0.06962066    -0.06300
C883        C  0.93211045  0.51278067  0.06353069    -0.24500
C884        C  0.96118502  0.47156797  0.06852789     0.17700
C885        C  0.93887170  0.42509246  0.07094613     0.14900
C886        C  0.88819246  0.42129167  0.07523958    -0.19500
C887        C  0.96774679  0.38380686  0.07576041    -0.21300
C888        C  0.01731668  0.38914992  0.08557244    -0.13900
C889        C  0.03867045  0.43586631  0.09021052     0.02800
C890        C  0.01132580  0.47661429  0.07737739    -0.26000
H891        H  0.86063409  0.54204161  0.07097601     0.07800
H892        H  0.94849100  0.54852821  0.06000017     0.11500
H893        H  0.87170274  0.38599489  0.08146985     0.11400
H894        H  0.95140384  0.34779949  0.07643780     0.11100
H895        H  0.03788084  0.35671606  0.09339688     0.11700
H896        H  0.02769745  0.51262206  0.07932757     0.13600
C897        C  0.11197820  0.47102759  0.61653166    -0.06400
C898        C  0.10882570  0.51697349  0.59524094    -0.06300
C899        C  0.12620776  0.52310334  0.54789350    -0.24500
C900        C  0.14413170  0.48279269  0.52170636     0.17700
C901        C  0.13742684  0.43571464  0.54061431     0.14900
C902        C  0.11439425  0.43022125  0.58539426    -0.19500
C903        C  0.15848114  0.39544070  0.51746519    -0.21300
C904        C  0.18692447  0.40173919  0.47640183    -0.13900
C905        C  0.19320336  0.44818640  0.45641510     0.02800
C906        C  0.17111093  0.48872034  0.47895599    -0.26000
H907        H  0.10394871  0.54910354  0.61820004     0.07800
H908        H  0.13041707  0.55955128  0.53411377     0.11500
H909        H  0.11218590  0.39412054  0.60058373     0.11400
H910        H  0.15438425  0.35929676  0.53206657     0.11100
H911        H  0.20325180  0.36966255  0.45981368     0.11700
H912        H  0.17560024  0.52465477  0.46394133     0.13600
C913        C  0.93917494  0.01545416  0.17209522    -0.06400
C914        C  0.89159623  0.99605878  0.16877703    -0.06300
C915        C  0.88282891  0.95404622  0.14164770    -0.24500
C916        C  0.92212188  0.92960933  0.12046112     0.17700
C917        C  0.96960215  0.94992972  0.12214021     0.14900
C918        C  0.97764605  0.99360005  0.14693880    -0.19500
C919        C  0.00928512  0.92253920  0.10599061    -0.21300
C920        C  0.00345591  0.87273932  0.09829923    -0.13900
C921        C  0.95808869  0.85197160  0.10919020     0.02800
C922        C  0.91652964  0.88119533  0.10767740    -0.26000
H923        H  0.86106788  0.01345087  0.18698867     0.07800
H924        H  0.84629097  0.93864536  0.14087186     0.11500
H925        H  0.01402010  0.00936752  0.14843110     0.11400
H926        H  0.04545577  0.93751749  0.10880928     0.11100
H927        H  0.03576475  0.85034980  0.09567984     0.11700
H928        H  0.88075279  0.86521012  0.11304892     0.13600
C929        C  0.96749932  0.56131007  0.57724079    -0.06400
C930        C  0.01250083  0.56725437  0.55362536    -0.06300
C931        C  0.01815185  0.55436727  0.50504414    -0.24500
C932        C  0.97783957  0.53916879  0.47786754     0.17700
C933        C  0.93168400  0.53419249  0.50032031     0.14900
C934        C  0.92707568  0.54361046  0.55062176    -0.19500
C935        C  0.89057894  0.52451461  0.47115200    -0.21300
C936        C  0.89452891  0.52675876  0.42036970    -0.13900
C937        C  0.94009385  0.53612435  0.39863595     0.02800
C938        C  0.98209293  0.53603507  0.42748719    -0.26000
H939        H  0.04307423  0.58456291  0.57199373     0.07800
H940        H  0.05301889  0.56066220  0.48763298     0.11500
H941        H  0.89180710  0.54033496  0.56812435     0.11400
H942        H  0.85488831  0.52008112  0.48746369     0.11100
H943        H  0.86154122  0.52539668  0.39858913     0.11700
H944        H  0.01761807  0.54195174  0.41118524     0.13600
C945        C  0.94644811  0.37661194  0.59410338    -0.06400
C946        C  0.89955569  0.38629990  0.57546685    -0.06300
C947        C  0.89310546  0.39609994  0.52615815    -0.24500
C948        C  0.93344968  0.39621917  0.49502018     0.17700
C949        C  0.98094838  0.39503968  0.51517998     0.14900
C950        C  0.98722171  0.38585070  0.56487324    -0.19500
C951        C  0.02129807  0.39637945  0.48427268    -0.21300
C952        C  0.01494160  0.39027703  0.43419680    -0.13900
C953        C  0.96803435  0.38195860  0.41454885     0.02800
C954        C  0.92717803  0.39049255  0.44436243    -0.26000
H955        H  0.86731440  0.38170570  0.59771727     0.07800
H956        H  0.85641514  0.39869396  0.51170741     0.11500
H957        H  0.02352866  0.38001926  0.57908823     0.11400
H958        H  0.05781117  0.39665227  0.49889398     0.11100
H959        H  0.04724432  0.38643772  0.41177714     0.11700
H960        H  0.89073239  0.38609318  0.42944615     0.13600
C961        C  0.93913044  0.01749951  0.80640736    -0.06400
C962        C  0.89788515  0.00303029  0.83290269    -0.06300
C963        C  0.89680578  0.95758063  0.85349022    -0.24500
C964        C  0.93675567  0.92698008  0.84696941     0.17700
C965        C  0.97603065  0.94066002  0.81671037     0.14900
C966        C  0.97688136  0.98580256  0.79644600    -0.19500
C967        C  0.01500187  0.90987184  0.80855751    -0.21300
C968        C  0.01647381  0.86637104  0.83221396    -0.13900
C969        C  0.97601768  0.85038018  0.85977992     0.02800
C970        C  0.93724774  0.88217266  0.86855782    -0.26000
H971        H  0.86776849  0.02757510  0.83963056     0.07800
H972        H  0.86576826  0.94701868  0.87542240     0.11500
H973        H  0.00785549  0.99701605  0.77462492     0.11400
H974        H  0.04496996  0.91994633  0.78495699     0.11100
H975        H  0.04789230  0.84361837  0.82522755     0.11700
H976        H  0.90470055  0.86951196  0.88691101     0.13600
C977        C  0.35652538  0.95723308  0.57437613    -0.06400
C978        C  0.37556487  0.00281488  0.56141122    -0.06300
C979        C  0.42578591  0.00975452  0.55805724    -0.24500
C980        C  0.45723469  0.97117557  0.56722780     0.17700
C981        C  0.43789859  0.92353818  0.57058505     0.14900
C982        C  0.38728408  0.91658140  0.57298873    -0.19500
C983        C  0.46938841  0.88460746  0.57767419    -0.21300
C984        C  0.51838865  0.89362218  0.58818029    -0.13900
C985        C  0.53662137  0.94178598  0.59228014     0.02800
C986        C  0.50653167  0.98002694  0.57831104    -0.26000
H987        H  0.35225914  0.03440453  0.55957102     0.07800
H988        H  0.43977732  0.04601474  0.55271268     0.11500
H989        H  0.37284694  0.88078332  0.58090473     0.11400
H990        H  0.45553112  0.84762037  0.57889530     0.11100
H991        H  0.54091988  0.86275432  0.59682469     0.11700
H992        H  0.52015512  0.01680393  0.58037310     0.13600
C993        C  0.05902097  0.95747092  0.90170659    -0.06400
C994        C  0.04796344  0.00234520  0.92412355    -0.06300
C995        C  0.05803913  0.00804407  0.97363546    -0.24500
C996        C  0.07463991  0.96815352  0.99927243     0.17700
C997        C  0.07099014  0.92093947  0.97802537     0.14900
C998        C  0.05654167  0.91584234  0.92989842    -0.19500
C999        C  0.09192612  0.88133541  0.00070551    -0.21300
C1000       C  0.11986224  0.88901266  0.04194323    -0.13900
C1001       C  0.12586590  0.93630669  0.06176833     0.02800
C1002       C  0.10165395  0.97555427  0.04151902    -0.26000
H1003       H  0.04505741  0.03469966  0.90249030     0.07800
H1004       H  0.06188996  0.04404129  0.98930674     0.11500
H1005       H  0.06114536  0.88035607  0.91280653     0.11400
H1006       H  0.09106144  0.84539702  0.98402019     0.11100
H1007       H  0.13747893  0.85783552  0.05766994     0.11700
H1008       H  0.10527742  0.01187610  0.05744200     0.13600
C1009       C  0.54096376  0.97415274  0.40871977    -0.06400
C1010       C  0.51898612  0.02020305  0.40646122    -0.06300
C1011       C  0.47043396  0.02665285  0.41832898    -0.24500
C1012       C  0.44190543  0.98653146  0.42973632     0.17700
C1013       C  0.46361838  0.94026551  0.43472794     0.14900
C1014       C  0.51368420  0.93457996  0.42560305    -0.19500
C1015       C  0.43380625  0.89976164  0.44301668    -0.21300
C1016       C  0.38326270  0.90394026  0.43827259    -0.13900
C1017       C  0.36234843  0.94898729  0.42660993     0.02800
C1018       C  0.39135189  0.99091752  0.42863508    -0.26000
H1019       H  0.53811872  0.05089146  0.39147329     0.07800
H1020       H  0.45411306  0.06201789  0.41343158     0.11500
H1021       H  0.53005180  0.89883903  0.42710865     0.11400
H1022       H  0.44954234  0.86415071  0.44808598     0.11100
H1023       H  0.36123935  0.87110360  0.43890401     0.11700
H1024       H  0.37545984  0.02606614  0.42131007     0.13600
C1025       C  0.60893750  0.94675960  0.89407895    -0.06400
C1026       C  0.60572195  0.90069241  0.91550933    -0.06300
C1027       C  0.62749147  0.89345095  0.96084102    -0.24500
C1028       C  0.65096750  0.93266910  0.98462095     0.17700
C1029       C  0.64522726  0.98009486  0.96651571     0.14900
C1030       C  0.61783459  0.98700652  0.92470194    -0.19500
C1031       C  0.67198932  0.01900684  0.98629856    -0.21300
C1032       C  0.70430271  0.01113839  0.02395802    -0.13900
C1033       C  0.70779120  0.96491525  0.04486734     0.02800
C1034       C  0.68165468  0.92539126  0.02444377    -0.26000
H1035       H  0.59600065  0.86893908  0.89338808     0.07800
H1036       H  0.63025763  0.85687724  0.97456523     0.11500
H1037       H  0.61778781  0.02310678  0.90957756     0.11400
H1038       H  0.66912568  0.05522384  0.97166067     0.11100
H1039       H  0.72435835  0.04223149  0.03865822     0.11700
H1040       H  0.68429728  0.88954659  0.03997651     0.13600
C1041       C  0.53332350  0.37338348  0.99483958    -0.06400
C1042       C  0.52299741  0.38946290  0.94736875    -0.06300
C1043       C  0.51619698  0.43860951  0.93869595    -0.24500
C1044       C  0.51786753  0.47210777  0.97754335     0.17700
C1045       C  0.51882363  0.45513730  0.02596464     0.14900
C1046       C  0.52669904  0.40562826  0.03449985    -0.19500
C1047       C  0.51672078  0.48864773  0.06481004    -0.21300
C1048       C  0.52151336  0.53810663  0.05589280    -0.13900
C1049       C  0.53049464  0.55443752  0.00817689     0.02800
C1050       C  0.52374191  0.52187778  0.96878586    -0.26000
H1051       H  0.52512233  0.36491237  0.91603753     0.07800
H1052       H  0.51334990  0.45065673  0.90143514     0.11500
H1053       H  0.53257571  0.39346133  0.07138176     0.11400
H1054       H  0.51519004  0.47656336  0.10213990     0.11100
H1055       H  0.52368139  0.56279795  0.08714349     0.11700
H1056       H  0.52842982  0.53417743  0.93177501     0.13600
C1057       C  0.84170440  0.05616430  0.00011711    -0.06400
C1058       C  0.86115767  0.04329521  0.04540149    -0.06300
C1059       C  0.91089689  0.05126071  0.05340700    -0.24500
C1060       C  0.93992165  0.06792458  0.01533098     0.17700
C1061       C  0.92115693  0.06560582  0.96717890     0.14900
C1062       C  0.87247541  0.05219685  0.95963476    -0.19500
C1063       C  0.94731531  0.08613227  0.92930363    -0.21300
C1064       C  0.98892503  0.11326906  0.93969115    -0.13900
C1065       C  0.00679128  0.11825810  0.98790307     0.02800
C1066       C  0.98339110  0.09328928  0.02536432    -0.26000
H1067       H  0.83755917  0.04052706  0.07689828     0.07800
H1068       H  0.92429956  0.05329893  0.09010525     0.11500
H1069       H  0.85700045  0.05582868  0.92349869     0.11400
H1070       H  0.93313137  0.08546607  0.89249226     0.11100
H1071       H  0.00673241  0.13081575  0.90947949     0.11700
H1072       H  0.99730256  0.09586627  0.06237440     0.13600
C1073       C  0.37417110  0.36956676  0.01028776    -0.06400
C1074       C  0.38536281  0.39044508  0.05628739    -0.06300
C1075       C  0.39481985  0.44016041  0.06124910    -0.24500
C1076       C  0.39253670  0.46957358  0.02037036     0.17700
C1077       C  0.38845392  0.44787481  0.97329673     0.14900
C1078       C  0.38054019  0.39759241  0.96843559    -0.19500
C1079       C  0.38624864  0.47744287  0.93244821    -0.21300
C1080       C  0.38013162  0.52751020  0.93879703    -0.13900
C1081       C  0.37669230  0.54838976  0.98608348     0.02800
C1082       C  0.38804987  0.52000930  0.02633847    -0.26000
H1083       H  0.38272345  0.36928331  0.08903806     0.07800
H1084       H  0.39939903  0.45611071  0.09746244     0.11500
H1085       H  0.37354425  0.38168466  0.93256557     0.11400
H1086       H  0.38447396  0.46155464  0.89596325     0.11100
H1087       H  0.37335026  0.54887246  0.90678042     0.11700
H1088       H  0.38727169  0.53602695  0.06280229     0.13600
C1089       C  0.84364806  0.83942039  0.01685249    -0.06400
C1090       C  0.87107807  0.87166660  0.98884839    -0.06300
C1091       C  0.92109759  0.86343284  0.98289730    -0.24500
C1092       C  0.94097629  0.81945015  0.99857808     0.17700
C1093       C  0.91343274  0.78943305  0.02935019     0.14900
C1094       C  0.86762844  0.80349473  0.04311781    -0.19500
C1095       C  0.93155971  0.74551655  0.04596342    -0.21300
C1096       C  0.97778640  0.73146531  0.03267081    -0.13900
C1097       C  0.00602099  0.76141239  0.00316679     0.02800
C1098       C  0.98763004  0.80487453  0.98516417    -0.26000
H1099       H  0.85344263  0.90028729  0.96894300     0.07800
H1100       H  0.94314496  0.88905339  0.96309506     0.11500
H1101       H  0.84818971  0.78052261  0.06829549     0.11400
H1102       H  0.91030724  0.72249582  0.06966678     0.11100
H1103       H  0.99248797  0.69820213  0.04714738     0.11700
H1104       H  0.00986258  0.82768567  0.96243567     0.13600
loop_ 
_geom_bond_atom_site_label_1 
_geom_bond_atom_site_label_2 
_geom_bond_distance 
_geom_bond_site_symmetry_2 
_ccdc_geom_bond_type 
C1            N2   1.340       .  A
C1            N6   1.345   1_554  A
C1         C1097   1.431       .  S
N2            C3   1.339       .  A
C3            N4   1.361       .  A
C3          C168   1.442       .  S
N4            C5   1.364   1_554  A
C5            N6   1.354       .  A
C5          C312   1.445       .  S
C7            N8   1.361   1_556  A
C7           N12   1.350       .  A
C7         C1081   1.477       .  S
N8            C9   1.358       .  A
C9           N10   1.396       .  A
C9          C171   1.526       .  S
N10          C11   1.389   1_554  A
C11          N12   1.349       .  A
C11         C314   1.520       .  S
C13          N14   1.354   1_554  A
C13          N18   1.354       .  A
C13        C1057   1.478       .  S
N14          C15   1.353       .  A
C15          N16   1.361   1_556  A
C15         C624   1.450       .  S
N16          C17   1.361       .  A
C17          N18   1.354       .  A
C17         C546   1.451       .  S
C19          N20   1.365       .  A
C19          N24   1.348   1_554  A
C19        C1041   1.480   1_554  S
N20          C21   1.367       .  A
C21          N22   1.392       .  A
C21         C549   1.527       .  S
N22          C23   1.386   1_554  A
C23          N24   1.341       .  A
C23         C626   1.512       .  S
C25          N26   1.340   1_565  A
C25          N30   1.351       .  A
C25        C1033   1.461       .  S
N26          C27   1.339       .  A
C27          N28   1.367   1_545  A
C27         C548   1.453       .  S
N28          C29   1.368       .  A
C29          N30   1.359       .  A
C29         C390   1.469       .  S
C31          N32   1.360       .  A
C31          N36   1.347   1_565  A
C31        C1009   1.473       .  S
N32          C33   1.363       .  A
C33          N34   1.393       .  A
C33         C392   1.522       .  S
N34          C35   1.387   1_565  A
C35          N36   1.340       .  A
C35         C579   1.511       .  S
C37          N38   1.347       .  A
C37          N42   1.353       .  A
C37         C993   1.468       .  S
N38          C39   1.347   1_565  A
C39          N40   1.363   1_545  A
C39         C234   1.437       .  S
N40          C41   1.361       .  A
C41          N42   1.349       .  A
C41         C315   1.452       .  S
C43          N44   1.358       .  A
C43          N48   1.353       .  A
C43         C977   1.477       .  S
N44          C45   1.359       .  A
C45          N46   1.387       .  A
C45         C346   1.515       .  S
N46          C47   1.386       .  A
C47          N48   1.350       .  A
C47         C237   1.509   1_565  S
C49          N50   1.352   1_554  A
C49          N54   1.346       .  A
C49        C1089   1.448       .  S
N50          C51   1.357       .  A
C51          N52   1.362       .  A
C51         C480   1.436       .  S
N52          C53   1.358   1_556  A
C53          N54   1.353       .  A
C53         C425   1.441       .  S
C55          N56   1.367   1_554  A
C55          N60   1.347       .  A
C55        C1049   1.480       .  S
N56          C57   1.367       .  A
C57          N58   1.396       .  A
C57         C483   1.539       .  S
N58          C59   1.391   1_556  A
C59          N60   1.340       .  A
C59         C422   1.517       .  S
C61          N62   1.361   1_556  A
C61          N66   1.343       .  A
C61        C1065   1.473       .  S
N62          C63   1.366       .  A
C63          N64   1.363       .  A
C63         C678   1.463       .  S
N64          C65   1.358   1_554  A
C65          N66   1.338       .  A
C65         C270   1.443       .  S
C67          N68   1.357       .  A
C67          N72   1.358   1_554  A
C67        C1073   1.480       .  S
N68          C69   1.354       .  A
C69          N70   1.387       .  A
C69         C680   1.523       .  S
N70          C71   1.390   1_554  A
C71          N72   1.357       .  A
C71         C266   1.518       .  S
C73          N74   1.343       .  A
C73          N78   1.367       .  A
C73         C482   1.442       .  S
N74          C75   1.334       .  A
C75          N76   1.347       .  A
C75        C1025   1.468       .  S
N76          C77   1.358       .  A
C77          N78   1.366       .  A
C77         C627   1.465   1_565  S
C79          N80   1.348       .  A
C79          N84   1.369       .  A
C79         C985   1.486       .  S
N80          C81   1.343       .  A
C81          N82   1.394       .  A
C81         C513   1.530       .  S
N82          C83   1.401   1_565  A
C83          N84   1.369   1_545  A
C83         C658   1.549       .  S
C85          N86   1.365       .  A
C85          N90   1.353       .  A
C85         C681   1.444   1_565  S
N86          C87   1.360       .  A
C87          N88   1.333       .  A
C87         C170   1.430       .  S
N88          C89   1.334       .  A
C89          N90   1.349       .  A
C89        C1001   1.443       .  S
C91          N92   1.352       .  A
C91          N96   1.363       .  A
C91        C1017   1.475       .  S
N92          C93   1.348       .  A
C93          N94   1.395       .  A
C93         C201   1.521       .  S
N94          C95   1.395       .  A
C95          N96   1.358       .  A
C95         C712   1.540   1_565  S
C97          N98   1.360       .  A
C97         N102   1.332       .  A
C97         C659   1.415       .  S
N98          C99   1.363       .  A
C99         N100   1.347       .  A
C99         C236   1.437   1_655  S
N100        C101   1.344       .  A
C101        N102   1.325       .  A
C101        C961   1.423       .  S
C103        N104   1.352       .  A
C103        N108   1.364       .  A
C103        C945   1.483       .  S
N104        C105   1.348       .  A
C105        N106   1.391       .  A
C105        C656   1.525       .  S
N106        C107   1.397       .  A
C107        N108   1.363       .  A
C107        C267   1.535   1_655  S
C109        N110   1.353   1_655  A
C109        N114   1.360       .  A
C109        C347   1.430   1_655  S
N110        C111   1.339   1_455  A
C111        N112   1.344       .  A
C111        C969   1.462       .  S
N112        C113   1.351       .  A
C113        N114   1.364       .  A
C113        C516   1.421       .  S
C115        N116   1.355       .  A
C115        N120   1.348   1_655  A
C115        C929   1.468       .  S
N116        C117   1.359       .  A
C117        N118   1.401       .  A
C117        C512   1.533       .  S
N118        C119   1.397   1_655  A
C119        N120   1.342       .  A
C119        C344   1.530       .  S
C121        N122   1.364       .  A
C121        N126   1.348       .  A
C121        C204   1.437   1_655  S
N122        C123   1.362       .  A
C123        N124   1.343       .  A
C123        C393   1.441       .  S
N124        C125   1.347       .  A
C125        N126   1.346       .  A
C125        C921   1.460       .  S
C127        N128   1.352       .  A
C127        N132   1.358       .  A
C127        C937   1.473       .  S
N128        C129   1.352       .  A
C129        N130   1.390       .  A
C129        C424   1.516       .  S
N130        C131   1.391       .  A
C131        N132   1.352       .  A
C131        C200   1.522   1_655  S
C133        N134   1.363       .  A
C133        N138   1.353       .  A
C133        C713   1.441   1_655  S
N134        C135   1.356       .  A
C135        N136   1.335       .  A
C135        C582   1.426       .  S
N136        C137   1.334       .  A
C137        N138   1.350       .  A
C137        C913   1.440       .  S
C139        N140   1.364       .  A
C139        N144   1.355   1_655  A
C139        C953   1.483       .  S
N140        C141   1.363       .  A
C141        N142   1.396       .  A
C141        C578   1.538       .  S
N142        C143   1.393   1_655  A
C143        N144   1.348       .  A
C143        C710   1.529       .  S
C145        N146   1.349       .  A
C145        N150   1.339       .  A
C145        C905   1.468       .  S
N146        C147   1.361       .  A
C147        N148   1.365       .  A
C147        C206   1.459       .  S
N148        C149   1.363       .  A
C149        N150   1.344       .  A
C149        C715   1.451       .  S
C151        N152   1.362       .  A
C151        N156   1.349       .  A
C151        C889   1.478       .  S
N152        C153   1.362       .  A
C153        N154   1.388       .  A
C153        C203   1.519       .  S
N154        C155   1.384       .  A
C155        N156   1.346       .  A
C155        C714   1.505       .  S
O157       Zr193   2.441       .  S
O157        C168   1.295       .  A
O158       Zr192   2.465       .  S
O158        C169   1.294       .  A
O159       Zr165   2.430       .  S
O159        C170   1.292       .  A
O160       Zr165   2.431       .  S
O160        C171   1.287       .  A
O161       Zr195   2.585       .  S
O161        C171   1.323       .  A
O162       Zr194   2.407       .  S
O162        C170   1.285       .  A
O163       Zr165   2.511       .  S
O163        C169   1.306       .  A
O164       Zr165   2.405       .  S
O164        C168   1.284       .  A
Zr165       O166   2.319       .  S
Zr165       O167   2.363       .  S
Zr165       O175   2.371       .  S
Zr165       O173   2.328       .  S
O166       Zr192   2.374       .  S
O166       Zr195   2.357       .  S
O167       Zr193   2.367       .  S
O167       Zr194   2.375       .  S
C169        C377   1.515       .  S
H172        O173   0.962       .  S
O173       Zr192   2.303       .  S
O173       Zr194   2.376       .  S
H174        O175   0.963       .  S
O175       Zr193   2.336       .  S
O175       Zr195   2.320       .  S
O176       Zr192   2.440       .  S
O176        C199   1.293       .  A
O177       Zr193   2.441       .  S
O177        C200   1.288       .  A
O178       Zr194   2.445       .  S
O178        C201   1.289       .  A
O179       Zr195   2.433       .  S
O179        C202   1.292       .  A
O180       Zr195   2.453       .  S
O180        C203   1.292       .  A
O181       Zr194   2.458       .  S
O181        C204   1.296       .  A
O182       Zr196   2.452       .  S
O182        C205   1.291       .  A
O183       Zr196   2.409       .  S
O183        C206   1.289       .  A
O184       Zr194   2.542       .  S
O184        C205   1.313       .  A
O185       Zr195   2.456       .  S
O185        C206   1.295       .  A
O186       Zr192   2.566       .  S
O186        C201   1.320       .  A
O187       Zr193   2.398       .  S
O187        C204   1.285       .  A
O188       Zr193   2.536       .  S
O188        C203   1.312       .  A
O189       Zr192   2.453       .  S
O189        C202   1.295       .  A
O190       Zr196   2.405       .  S
O190        C199   1.286       .  A
O191       Zr196   2.568       .  S
O191        C200   1.319       .  A
Zr192       O198   2.358       .  S
Zr192       O210   2.372       .  S
Zr193       O197   2.311       .  S
Zr193       O208   2.370       .  S
Zr194       O198   2.312       .  S
Zr194       O208   2.334       .  S
Zr195       O197   2.376       .  S
Zr195       O210   2.378       .  S
Zr196       O197   2.343       .  S
Zr196       O198   2.363       .  S
Zr196       O210   2.379       .  S
Zr196       O208   2.293       .  S
C199        C277   1.436       .  S
C202        C369   1.460       .  S
C205        C285   1.525       .  S
H207        O208   0.964       .  S
H209        O210   0.965       .  S
C211        N212   1.345       .  A
C211        N216   1.364       .  A
C211        C709   1.456       .  S
N212        C213   1.341       .  A
C213        N214   1.349       .  A
C213        C865   1.465       .  S
N214        C215   1.358       .  A
C215        N216   1.367       .  A
C215        C268   1.461       .  S
C217        N218   1.362       .  A
C217        N222   1.352       .  A
C217        C857   1.483       .  S
N218        C219   1.364       .  A
C219        N220   1.389       .  A
C219        C235   1.520       .  S
N220        C221   1.385       .  A
C221        N222   1.347       .  A
C221        C716   1.511       .  S
O223       Zr259   2.457       .  S
O223        C234   1.296       .  A
O224       Zr258   2.455       .  S
O224        C235   1.293       .  A
O225       Zr231   2.428       .  S
O225        C236   1.293       .  A
O226       Zr231   2.446       .  S
O226        C237   1.289       .  A
O227       Zr261   2.527       .  S
O227        C237   1.311       .  A
O228       Zr260   2.412       .  S
O228        C236   1.286       .  A
O229       Zr231   2.531       .  S
O229        C235   1.311       .  A
O230       Zr231   2.395       .  S
O230        C234   1.284       .  A
Zr231       O232   2.304       .  S
Zr231       O233   2.371       .  S
Zr231       O241   2.362       .  S
Zr231       O239   2.329       .  S
O232       Zr258   2.359       .  S
O232       Zr261   2.330       .  S
O233       Zr259   2.371       .  S
O233       Zr260   2.368       .  S
H238        O239   0.963       .  S
O239       Zr258   2.307       .  S
O239       Zr260   2.372       .  S
H240        O241   0.964       .  S
O241       Zr259   2.341       .  S
O241       Zr261   2.297       .  S
O242       Zr258   2.409       .  S
O242        C265   1.290       .  A
O243       Zr259   2.446       .  S
O243        C266   1.290       .  A
O244       Zr260   2.463       .  S
O244        C267   1.293       .  A
O245       Zr261   2.424       .  S
O245        C268   1.292       .  A
O246       Zr261   2.443       .  S
O246        C269   1.290       .  A
O247       Zr260   2.441       .  S
O247        C270   1.294       .  A
O248       Zr262   2.457       .  S
O248        C271   1.293       .  A
O249       Zr262   2.461       .  S
O249        C272   1.297       .  A
O250       Zr260   2.533       .  S
O250        C271   1.312       .  A
O251       Zr261   2.373       .  S
O251        C272   1.280       .  A
O252       Zr258   2.573       .  S
O252        C267   1.320       .  A
O253       Zr259   2.417       .  S
O253        C270   1.287       .  A
O254       Zr259   2.533       .  S
O254        C269   1.311       .  A
O255       Zr258   2.446       .  S
O255        C268   1.293       .  A
O256       Zr262   2.446       .  S
O256        C265   1.292       .  A
O257       Zr262   2.549       .  S
O257        C266   1.315       .  A
Zr258       O264   2.345       .  S
Zr258       O276   2.388       .  S
Zr259       O263   2.314       .  S
Zr259       O274   2.375       .  S
Zr260       O264   2.303       .  S
Zr260       O274   2.347       .  S
Zr261       O263   2.358       .  S
Zr261       O276   2.379       .  S
Zr262       O263   2.343       .  S
Zr262       O264   2.370       .  S
Zr262       O276   2.386       .  S
Zr262       O274   2.326       .  S
C265        C291   1.456       .  S
C269        C597   1.515       .  S
C271        C297   1.521       .  S
C272        C591   1.430       .  S
H273        O274   0.964       .  S
H275        O276   0.965       .  S
C277        N278   1.357       .  A
C277        N282   1.347       .  A
N278        C279   1.359       .  A
C279        N280   1.354       .  A
C279        C343   1.440       .  S
N280        C281   1.355       .  A
C281        N282   1.347       .  A
C281        C841   1.477       .  S
C283        N284   1.364       .  A
C283        N288   1.351       .  A
C283        C849   1.482       .  S
N284        C285   1.363       .  A
C285        N286   1.392       .  A
N286        C287   1.387       .  A
C287        N288   1.347       .  A
C287        C350   1.516       .  S
C289        N290   1.346       .  A
C289        N294   1.339       .  A
C289        C897   1.470       .  S
N290        C291   1.356       .  A
C291        N292   1.363       .  A
N292        C293   1.364       .  A
C293        N294   1.346       .  A
C293        C349   1.439       .  S
C295        N296   1.362       .  A
C295        N300   1.345       .  A
C295        C817   1.478       .  S
N296        C297   1.365       .  A
C297        N298   1.393       .  A
N298        C299   1.386       .  A
C299        N300   1.342       .  A
C299        C348   1.509       .  S
O301       Zr337   2.424       .  S
O301        C312   1.291       .  A
O302       Zr336   2.439       .  S
O302        C313   1.286       .  A
O303       Zr309   2.481       .  S
O303        C314   1.296       .  A
O304       Zr309   2.462       .  S
O304        C315   1.297       .  A
O305       Zr339   2.415       .  S
O305        C315   1.288       .  A
O306       Zr338   2.507       .  S
O306        C314   1.307       .  A
O307       Zr309   2.544       .  S
O307        C313   1.317       .  A
O308       Zr309   2.429       .  S
O308        C312   1.289       .  A
Zr309       O310   2.355       .  S
Zr309       O311   2.371       .  S
Zr309       O319   2.379       .  S
Zr309       O317   2.324       .  S
O310       Zr336   2.327       .  S
O310       Zr339   2.376       .  S
O311       Zr337   2.328       .  S
O311       Zr338   2.310       .  S
C313        C455   1.507       .  S
H316        O317   0.963       .  S
O317       Zr336   2.383       .  S
O317       Zr338   2.336       .  S
H318        O319   0.966       .  S
O319       Zr337   2.371       .  S
O319       Zr339   2.375       .  S
O320       Zr336   2.469       .  S
O320        C343   1.297       .  A
O321       Zr337   2.454       .  S
O321        C344   1.290       .  A
O322       Zr338   2.415       .  S
O322        C345   1.291       .  A
O323       Zr339   2.466       .  S
O323        C346   1.295       .  A
O324       Zr339   2.481       .  S
O324        C347   1.301       .  A
O325       Zr338   2.466       .  S
O325        C348   1.291       .  A
O326       Zr340   2.466       .  S
O326        C349   1.291       .  A
O327       Zr340   2.463       .  S
O327        C350   1.293       .  A
O328       Zr338   2.395       .  S
O328        C349   1.279       .  A
O329       Zr339   2.535       .  S
O329        C350   1.314       .  A
O330       Zr336   2.403       .  S
O330        C345   1.283       .  A
O331       Zr337   2.504       .  S
O331        C348   1.307       .  A
O332       Zr337   2.344       .  S
O332        C347   1.274       .  A
O333       Zr336   2.515       .  S
O333        C346   1.308       .  A
O334       Zr340   2.376       .  S
O334        C343   1.281       .  A
O335       Zr340   2.555       .  S
O335        C344   1.319       .  A
Zr336       O342   2.354       .  S
Zr336       O354   2.338       .  S
Zr337       O341   2.348       .  S
Zr337       O352   2.294       .  S
Zr338       O342   2.364       .  S
Zr338       O352   2.379       .  S
Zr339       O341   2.325       .  S
Zr339       O354   2.321       .  S
Zr340       O341   2.292       .  S
Zr340       O342   2.351       .  S
Zr340       O354   2.364       .  S
Zr340       O352   2.334       .  S
C345        C449   1.424       .  S
H351        O352   0.963       .  S
H353        O354   0.965       .  S
C355        N356   1.337       .  A
C355        N360   1.348       .  A
C355        C801   1.445       .  S
N356        C357   1.338       .  A
C357        N358   1.357       .  A
C357        C421   1.425       .  S
N358        C359   1.361       .  A
C359        N360   1.348       .  A
C359        C584   1.434       .  S
C361        N362   1.351       .  A
C361        N366   1.359       .  A
C361        C881   1.476       .  S
N362        C363   1.348       .  A
C363        N364   1.389       .  A
C363        C428   1.508       .  S
N364        C365   1.389       .  A
C365        N366   1.358       .  A
C365        C581   1.522       .  S
C367        N368   1.358       .  A
C367        N372   1.349       .  A
C367        C793   1.472       .  S
N368        C369   1.362       .  A
C369        N370   1.362       .  A
N370        C371   1.357       .  A
C371        N372   1.346       .  A
C371        C427   1.450       .  S
C373        N374   1.345       .  A
C373        N378   1.364       .  A
C373        C777   1.474       .  S
N374        C375   1.340       .  A
C375        N376   1.381       .  A
C375        C426   1.491       .  S
N376        C377   1.384       .  A
C377        N378   1.365       .  A
O379       Zr415   2.432       .  S
O379        C390   1.293       .  A
O380       Zr414   2.434       .  S
O380        C391   1.286       .  A
O381       Zr387   2.452       .  S
O381        C392   1.293       .  A
O382       Zr387   2.473       .  S
O382        C393   1.299       .  A
O383       Zr417   2.381       .  S
O383        C393   1.282       .  A
O384       Zr416   2.551       .  S
O384        C392   1.316       .  A
O385       Zr387   2.556       .  S
O385        C391   1.318       .  A
O386       Zr387   2.460       .  S
O386        C390   1.295       .  A
Zr387       O388   2.340       .  S
Zr387       O389   2.375       .  S
Zr387       O397   2.378       .  S
Zr387       O395   2.338       .  S
O388       Zr414   2.315       .  S
O388       Zr417   2.377       .  S
O389       Zr415   2.323       .  S
O389       Zr416   2.322       .  S
C391        C441   1.513       .  S
H394        O395   0.965       .  S
O395       Zr414   2.361       .  S
O395       Zr416   2.347       .  S
H396        O397   0.965       .  S
O397       Zr415   2.372       .  S
O397       Zr417   2.376       .  S
O398       Zr414   2.410       .  S
O398        C421   1.288       .  A
O399       Zr415   2.446       .  S
O399        C422   1.289       .  A
O400       Zr416   2.411       .  S
O400        C423   1.287       .  A
O401       Zr417   2.468       .  S
O401        C424   1.294       .  A
O402       Zr417   2.492       .  S
O402        C425   1.303       .  A
O403       Zr416   2.419       .  S
O403        C426   1.283       .  A
O404       Zr418   2.415       .  S
O404        C427   1.289       .  A
O405       Zr418   2.436       .  S
O405        C428   1.287       .  A
O406       Zr416   2.455       .  S
O406        C427   1.294       .  A
O407       Zr417   2.538       .  S
O407        C428   1.314       .  A
O408       Zr414   2.436       .  S
O408        C423   1.291       .  A
O409       Zr415   2.516       .  S
O409        C426   1.310       .  A
O410       Zr415   2.352       .  S
O410        C425   1.276       .  A
O411       Zr414   2.516       .  S
O411        C424   1.310       .  A
O412       Zr418   2.416       .  S
O412        C421   1.286       .  A
O413       Zr418   2.544       .  S
O413        C422   1.316       .  A
Zr414       O420   2.353       .  S
Zr414       O432   2.337       .  S
Zr415       O419   2.362       .  S
Zr415       O430   2.308       .  S
Zr416       O420   2.357       .  S
Zr416       O430   2.364       .  S
Zr417       O419   2.326       .  S
Zr417       O432   2.303       .  S
Zr418       O419   2.298       .  S
Zr418       O420   2.366       .  S
Zr418       O432   2.356       .  S
Zr418       O430   2.340       .  S
C423        C435   1.445       .  S
H429        O430   0.964       .  S
H431        O432   0.962       .  S
C433        N434   1.354       .  A
C433        N438   1.343       .  A
C433        C511   1.439       .  S
N434        C435   1.359       .  A
C435        N436   1.360       .  A
N436        C437   1.354       .  A
C437        N438   1.344       .  A
C437        C833   1.467       .  S
C439        N440   1.349       .  A
C439        N444   1.367       .  A
C439        C761   1.483       .  S
N440        C441   1.341       .  A
C441        N442   1.389       .  A
N442        C443   1.393       .  A
C443        N444   1.369       .  A
C443        C517   1.535       .  S
C445        N446   1.362       .  A
C445        N450   1.332       .  A
C445        C745   1.450       .  S
N446        C447   1.370       .  A
C447        N448   1.362       .  A
C447        C514   1.457       .  S
N448        C449   1.351       .  A
C449        N450   1.331       .  A
C451        N452   1.369       .  A
C451        N456   1.341       .  A
C451        C769   1.482       .  S
N452        C453   1.372       .  A
C453        N454   1.394       .  A
C453        C481   1.538       .  S
N454        C455   1.389       .  A
C455        N456   1.334       .  A
C457        N458   1.353       .  A
C457        N462   1.336       .  A
C457        C809   1.453       .  S
N458        C459   1.352       .  A
C459        N460   1.359       .  A
C459        C518   1.431       .  S
N460        C461   1.355       .  A
C461        N462   1.337       .  A
C461        C661   1.415       .  S
C463        N464   1.348       .  A
C463        N468   1.362       .  A
C463        C825   1.476       .  S
N464        C465   1.344       .  A
C465        N466   1.384       .  A
C465        C660   1.498       .  S
N466        C467   1.386       .  A
C467        N468   1.363       .  A
C467        C515   1.517       .  S
O469       Zr505   2.473       .  S
O469        C480   1.298       .  A
O470       Zr504   2.482       .  S
O470        C481   1.298       .  A
O471       Zr477   2.457       .  S
O471        C482   1.297       .  A
O472       Zr477   2.467       .  S
O472        C483   1.294       .  A
O473       Zr507   2.572       .  S
O473        C483   1.319       .  A
O474       Zr506   2.392       .  S
O474        C482   1.280       .  A
O475       Zr477   2.540       .  S
O475        C481   1.312       .  A
O476       Zr477   2.362       .  S
O476        C480   1.278       .  A
Zr477       O478   2.309       .  S
Zr477       O479   2.359       .  S
Zr477       O487   2.363       .  S
Zr477       O485   2.329       .  S
O478       Zr504   2.359       .  S
O478       Zr507   2.347       .  S
O479       Zr505   2.363       .  S
O479       Zr506   2.377       .  S
H484        O485   0.963       .  S
O485       Zr504   2.304       .  S
O485       Zr506   2.395       .  S
H486        O487   0.963       .  S
O487       Zr505   2.334       .  S
O487       Zr507   2.302       .  S
O488       Zr504   2.406       .  S
O488        C511   1.288       .  A
O489       Zr505   2.472       .  S
O489        C512   1.294       .  A
O490       Zr506   2.483       .  S
O490        C513   1.295       .  A
O491       Zr507   2.436       .  S
O491        C514   1.292       .  A
O492       Zr507   2.461       .  S
O492        C515   1.293       .  A
O493       Zr506   2.465       .  S
O493        C516   1.297       .  A
O494       Zr508   2.478       .  S
O494        C517   1.296       .  A
O495       Zr508   2.439       .  S
O495        C518   1.292       .  A
O496       Zr506   2.538       .  S
O496        C517   1.311       .  A
O497       Zr507   2.396       .  S
O497        C518   1.284       .  A
O498       Zr504   2.542       .  S
O498        C513   1.316       .  A
O499       Zr505   2.345       .  S
O499        C516   1.275       .  A
O500       Zr505   2.515       .  S
O500        C515   1.308       .  A
O501       Zr504   2.443       .  S
O501        C514   1.293       .  A
O502       Zr508   2.437       .  S
O502        C511   1.291       .  A
O503       Zr508   2.559       .  S
O503        C512   1.318       .  A
Zr504       O510   2.365       .  S
Zr504       O522   2.371       .  S
Zr505       O509   2.309       .  S
Zr505       O520   2.388       .  S
Zr506       O510   2.319       .  S
Zr506       O520   2.346       .  S
Zr507       O509   2.374       .  S
Zr507       O522   2.381       .  S
Zr508       O509   2.366       .  S
Zr508       O510   2.372       .  S
Zr508       O522   2.383       .  S
Zr508       O520   2.309       .  S
H519        O520   0.962       .  S
H521        O522   0.963       .  S
C523        N524   1.351       .  A
C523        N528   1.359       .  A
C523        C785   1.483       .  S
N524        C525   1.353       .  A
C525        N526   1.360       .  A
C525        C711   1.445       .  S
N526        C527   1.360       .  A
C527        N528   1.354       .  A
C527        C580   1.455       .  S
C529        N530   1.351       .  A
C529        N534   1.368       .  A
C529        C729   1.480       .  S
N530        C531   1.346       .  A
C531        N532   1.390       .  A
C531        C679   1.513       .  S
N532        C533   1.390       .  A
C533        N534   1.364       .  A
C533        C547   1.537       .  S
O535       Zr571   2.484       .  S
O535        C546   1.301       .  A
O536       Zr570   2.473       .  S
O536        C547   1.296       .  A
O537       Zr543   2.464       .  S
O537        C548   1.302       .  A
O538       Zr543   2.469       .  S
O538        C549   1.295       .  A
O539       Zr573   2.546       .  S
O539        C549   1.314       .  A
O540       Zr572   2.400       .  S
O540        C548   1.282       .  A
O541       Zr543   2.550       .  S
O541        C547   1.315       .  A
O542       Zr543   2.388       .  S
O542        C546   1.283       .  A
Zr543       O544   2.314       .  S
Zr543       O545   2.371       .  S
Zr543       O553   2.372       .  S
Zr543       O551   2.329       .  S
O544       Zr570   2.355       .  S
O544       Zr573   2.346       .  S
O545       Zr571   2.369       .  S
O545       Zr572   2.371       .  S
H550        O551   0.964       .  S
O551       Zr570   2.298       .  S
O551       Zr572   2.375       .  S
H552        O553   0.964       .  S
O553       Zr571   2.354       .  S
O553       Zr573   2.328       .  S
O554       Zr570   2.400       .  S
O554        C577   1.288       .  A
O555       Zr571   2.483       .  S
O555        C578   1.297       .  A
O556       Zr572   2.445       .  S
O556        C579   1.288       .  A
O557       Zr573   2.486       .  S
O557        C580   1.301       .  A
O558       Zr573   2.465       .  S
O558        C581   1.294       .  A
O559       Zr572   2.410       .  S
O559        C582   1.289       .  A
O560       Zr574   2.477       .  S
O560        C583   1.296       .  A
O561       Zr574   2.432       .  S
O561        C584   1.292       .  A
O562       Zr572   2.537       .  S
O562        C583   1.311       .  A
O563       Zr573   2.404       .  S
O563        C584   1.285       .  A
O564       Zr570   2.533       .  S
O564        C579   1.314       .  A
O565       Zr571   2.415       .  S
O565        C582   1.286       .  A
O566       Zr571   2.532       .  S
O566        C581   1.312       .  A
O567       Zr570   2.392       .  S
O567        C580   1.284       .  A
O568       Zr574   2.444       .  S
O568        C577   1.292       .  A
O569       Zr574   2.561       .  S
O569        C578   1.317       .  A
Zr570       O576   2.335       .  S
Zr570       O588   2.383       .  S
Zr571       O575   2.322       .  S
Zr571       O586   2.382       .  S
Zr572       O576   2.288       .  S
Zr572       O586   2.342       .  S
Zr573       O575   2.379       .  S
Zr573       O588   2.383       .  S
Zr574       O575   2.355       .  S
Zr574       O576   2.358       .  S
Zr574       O588   2.391       .  S
Zr574       O586   2.311       .  S
C577        C605   1.451       .  S
C583        C611   1.534       .  S
H585        O586   0.963       .  S
H587        O588   0.966       .  S
C589        N590   1.338       .  A
C589        N594   1.369       .  A
C589        C737   1.475       .  S
N590        C591   1.336       .  A
C591        N592   1.352       .  A
N592        C593   1.362       .  A
C593        N594   1.375       .  A
C593        C657   1.463       .  S
C595        N596   1.363       .  A
C595        N600   1.350       .  A
C595        C721   1.483       .  S
N596        C597   1.367       .  A
C597        N598   1.390       .  A
N598        C599   1.382       .  A
C599        N600   1.341       .  A
C599        C625   1.510       .  S
C601        N602   1.347       .  A
C601        N606   1.359       .  A
C601        C655   1.430       .  S
N602        C603   1.337       .  A
C603        N604   1.348       .  A
C603        C873   1.471       .  S
N604        C605   1.357       .  A
C605        N606   1.358       .  A
C607        N608   1.349       .  A
C607        N612   1.367       .  A
C607        C753   1.484       .  S
N608        C609   1.343       .  A
C609        N610   1.389       .  A
C609        C662   1.516       .  S
N610        C611   1.393       .  A
C611        N612   1.368       .  A
O613       Zr649   2.462       .  S
O613        C624   1.296       .  A
O614       Zr648   2.458       .  S
O614        C625   1.291       .  A
O615       Zr621   2.438       .  S
O615        C626   1.287       .  A
O616       Zr621   2.407       .  S
O616        C627   1.289       .  A
O617       Zr651   2.457       .  S
O617        C627   1.294       .  A
O618       Zr650   2.539       .  S
O618        C626   1.315       .  A
O619       Zr621   2.525       .  S
O619        C625   1.312       .  A
O620       Zr621   2.405       .  S
O620        C624   1.286       .  A
Zr621       O622   2.323       .  S
Zr621       O623   2.353       .  S
Zr621       O631   2.372       .  S
Zr621       O629   2.323       .  S
O622       Zr648   2.292       .  S
O622       Zr651   2.346       .  S
O623       Zr649   2.341       .  S
O623       Zr650   2.317       .  S
H628        O629   0.964       .  S
O629       Zr648   2.373       .  S
O629       Zr650   2.332       .  S
H630        O631   0.965       .  S
O631       Zr649   2.387       .  S
O631       Zr651   2.383       .  S
O632       Zr648   2.437       .  S
O632        C655   1.289       .  A
O633       Zr649   2.476       .  S
O633        C656   1.294       .  A
O634       Zr650   2.488       .  S
O634        C657   1.302       .  A
O635       Zr651   2.464       .  S
O635        C658   1.294       .  A
O636       Zr651   2.425       .  S
O636        C659   1.293       .  A
O637       Zr650   2.431       .  S
O637        C660   1.287       .  A
O638       Zr652   2.427       .  S
O638        C661   1.289       .  A
O639       Zr652   2.453       .  S
O639        C662   1.289       .  A
O640       Zr650   2.391       .  S
O640        C661   1.283       .  A
O641       Zr651   2.545       .  S
O641        C662   1.315       .  A
O642       Zr648   2.402       .  S
O642        C657   1.285       .  A
O643       Zr649   2.531       .  S
O643        C660   1.313       .  A
O644       Zr649   2.375       .  S
O644        C659   1.279       .  A
O645       Zr648   2.584       .  S
O645        C658   1.323       .  A
O646       Zr652   2.395       .  S
O646        C655   1.280       .  A
O647       Zr652   2.524       .  S
O647        C656   1.310       .  A
Zr648       O654   2.354       .  S
Zr648       O666   2.346       .  S
Zr649       O653   2.372       .  S
Zr649       O664   2.309       .  S
Zr650       O654   2.347       .  S
Zr650       O664   2.382       .  S
Zr651       O653   2.345       .  S
Zr651       O666   2.313       .  S
Zr652       O653   2.301       .  S
Zr652       O654   2.362       .  S
Zr652       O666   2.395       .  S
Zr652       O664   2.337       .  S
H663        O664   0.963       .  S
H665        O666   0.963       .  S
O667       Zr703   2.424       .  S
O667        C678   1.289       .  A
O668       Zr702   2.435       .  S
O668        C679   1.288       .  A
O669       Zr675   2.471       .  S
O669        C680   1.295       .  A
O670       Zr675   2.438       .  S
O670        C681   1.294       .  A
O671       Zr705   2.414       .  S
O671        C681   1.287       .  A
O672       Zr704   2.527       .  S
O672        C680   1.311       .  A
O673       Zr675   2.563       .  S
O673        C679   1.320       .  A
O674       Zr675   2.463       .  S
O674        C678   1.296       .  A
Zr675       O676   2.356       .  S
Zr675       O677   2.362       .  S
Zr675       O685   2.377       .  S
Zr675       O683   2.327       .  S
O676       Zr702   2.305       .  S
O676       Zr705   2.362       .  S
O677       Zr703   2.350       .  S
O677       Zr704   2.326       .  S
H682        O683   0.965       .  S
O683       Zr702   2.381       .  S
O683       Zr704   2.342       .  S
H684        O685   0.965       .  S
O685       Zr703   2.367       .  S
O685       Zr705   2.380       .  S
O686       Zr702   2.441       .  S
O686        C709   1.297       .  A
O687       Zr703   2.449       .  S
O687        C710   1.289       .  A
O688       Zr704   2.462       .  S
O688        C711   1.296       .  A
O689       Zr705   2.462       .  S
O689        C712   1.292       .  A
O690       Zr705   2.430       .  S
O690        C713   1.291       .  A
O691       Zr704   2.455       .  S
O691        C714   1.291       .  A
O692       Zr706   2.433       .  S
O692        C715   1.295       .  A
O693       Zr706   2.448       .  S
O693        C716   1.290       .  A
O694       Zr704   2.415       .  S
O694        C715   1.285       .  A
O695       Zr705   2.535       .  S
O695        C716   1.313       .  A
O696       Zr702   2.399       .  S
O696        C711   1.285       .  A
O697       Zr703   2.513       .  S
O697        C714   1.309       .  A
O698       Zr703   2.410       .  S
O698        C713   1.285       .  A
O699       Zr702   2.566       .  S
O699        C712   1.319       .  A
O700       Zr706   2.421       .  S
O700        C709   1.287       .  A
O701       Zr706   2.556       .  S
O701        C710   1.318       .  A
Zr702       O708   2.356       .  S
Zr702       O720   2.328       .  S
Zr703       O707   2.361       .  S
Zr703       O718   2.321       .  S
Zr704       O708   2.363       .  S
Zr704       O718   2.384       .  S
Zr705       O707   2.348       .  S
Zr705       O720   2.314       .  S
Zr706       O707   2.313       .  S
Zr706       O708   2.360       .  S
Zr706       O720   2.379       .  S
Zr706       O718   2.337       .  S
H717        O718   0.964       .  S
H719        O720   0.964       .  S
C721        C722   1.408       .  A
C721        C726   1.406       .  A
C722        C723   1.383       .  A
C722        H731   1.078       .  S
C723        C724   1.388   1_556  A
C723        H732   1.083       .  S
C724        C730   1.396       .  A
C724        C725   1.417   1_554  A
C725        C727   1.399   1_556  A
C725        C726   1.410       .  A
C726        H733   1.084       .  S
C727        C728   1.399       .  A
C727        H734   1.083       .  S
C728        C729   1.412       .  A
C728        H735   1.083       .  S
C729        C730   1.395       .  A
C730        H736   1.085       .  S
C737        C738   1.397       .  A
C737        C742   1.407       .  A
C738        C739   1.405       .  A
C738        H747   1.081       .  S
C739        C740   1.404       .  A
C739        H748   1.077       .  S
C740        C746   1.396       .  A
C740        C741   1.410       .  A
C741        C743   1.395       .  A
C741        C742   1.382       .  A
C742        H749   1.085       .  S
C743        C744   1.384       .  A
C743        H750   1.084       .  S
C744        C745   1.406       .  A
C744        H751   1.084       .  S
C745        C746   1.397       .  A
C746        H752   1.074       .  S
C753        C754   1.413       .  A
C753        C758   1.401       .  A
C754        C755   1.392   1_545  A
C754        H763   1.083       .  S
C755        C756   1.394       .  A
C755        H764   1.084       .  S
C756        C762   1.405       .  A
C756        C757   1.417       .  A
C757        C759   1.394       .  A
C757        C758   1.404   1_565  A
C758        H765   1.084       .  S
C759        C760   1.391       .  A
C759        H766   1.084       .  S
C760        C761   1.413       .  A
C760        H767   1.083       .  S
C761        C762   1.401       .  A
C762        H768   1.084       .  S
C769        C770   1.416       .  A
C769        C774   1.395       .  A
C770        C771   1.388       .  A
C770        H779   1.082       .  S
C771        C772   1.392   1_556  A
C771        H780   1.084       .  S
C772        C778   1.399       .  A
C772        C773   1.415       .  A
C773        C775   1.394       .  A
C773        C774   1.401   1_554  A
C774        H781   1.072       .  S
C775        C776   1.390       .  A
C775        H782   1.080       .  S
C776        C777   1.412       .  A
C776        H783   1.083       .  S
C777        C778   1.398       .  A
C778        H784   1.084       .  S
C785        C786   1.410       .  A
C785        C790   1.394       .  A
C786        C787   1.403       .  A
C786        H795   1.083       .  S
C787        C788   1.406       .  A
C787        H796   1.084       .  S
C788        C794   1.400       .  A
C788        C789   1.416       .  A
C789        C791   1.392       .  A
C789        C790   1.395       .  A
C790        H797   1.085       .  S
C791        C792   1.385       .  A
C791        H798   1.079       .  S
C792        C793   1.406       .  A
C792        H799   1.083       .  S
C793        C794   1.406       .  A
C794        H800   1.083       .  S
C801        C802   1.404       .  A
C801        C806   1.396       .  A
C802        C803   1.379       .  A
C802        H811   1.083       .  S
C803        C804   1.389       .  A
C803        H812   1.077       .  S
C804        C810   1.382       .  A
C804        C805   1.415       .  A
C805        C807   1.394       .  A
C805        C806   1.382       .  A
C806        H813   1.085       .  S
C807        C808   1.388       .  A
C807        H814   1.084       .  S
C808        C809   1.409       .  A
C808        H815   1.084       .  S
C809        C810   1.392       .  A
C810        H816   1.086       .  S
C817        C818   1.413       .  A
C817        C822   1.401       .  A
C818        C819   1.389   1_455  A
C818        H827   1.083       .  S
C819        C820   1.393       .  A
C819        H828   1.084       .  S
C820        C826   1.399       .  A
C820        C821   1.417       .  A
C821        C823   1.396       .  A
C821        C822   1.403   1_655  A
C822        H829   1.084       .  S
C823        C824   1.392       .  A
C823        H830   1.084       .  S
C824        C825   1.411       .  A
C824        H831   1.083       .  S
C825        C826   1.399       .  A
C826        H832   1.084       .  S
C833        C834   1.408       .  A
C833        C838   1.403       .  A
C834        C835   1.382       .  A
C834        H843   1.083       .  S
C835        C836   1.389       .  A
C835        H844   1.077       .  S
C836        C842   1.396       .  A
C836        C837   1.415       .  A
C837        C839   1.397       .  A
C837        C838   1.399       .  A
C838        H845   1.084       .  S
C839        C840   1.399       .  A
C839        H846   1.076       .  S
C840        C841   1.405       .  A
C840        H847   1.084       .  S
C841        C842   1.395       .  A
C842        H848   1.086       .  S
C849        C850   1.412       .  A
C849        C854   1.401       .  A
C850        C851   1.395       .  A
C850        H859   1.083       .  S
C851        C852   1.398       .  A
C851        H860   1.084       .  S
C852        C858   1.406   1_565  A
C852        C853   1.415       .  A
C853        C855   1.395       .  A
C853        C854   1.401       .  A
C854        H861   1.084       .  S
C855        C856   1.391   1_565  A
C855        H862   1.084       .  S
C856        C857   1.410       .  A
C856        H863   1.083       .  S
C857        C858   1.406       .  A
C858        H864   1.084       .  S
C865        C866   1.407       .  A
C865        C870   1.405       .  A
C866        C867   1.382       .  A
C866        H875   1.083       .  S
C867        C868   1.394       .  A
C867        H876   1.084       .  S
C868        C874   1.388       .  A
C868        C869   1.413       .  A
C869        C871   1.402       .  A
C869        C870   1.398       .  A
C870        H877   1.084       .  S
C871        C872   1.398       .  A
C871        H878   1.084       .  S
C872        C873   1.409       .  A
C872        H879   1.083       .  S
C873        C874   1.396       .  A
C874        H880   1.083       .  S
C881        C882   1.409       .  A
C881        C886   1.401       .  A
C882        C883   1.393       .  A
C882        H891   1.083       .  S
C883        C884   1.398       .  A
C883        H892   1.084       .  S
C884        C890   1.401   1_655  A
C884        C885   1.415       .  A
C885        C887   1.396       .  A
C885        C886   1.398       .  A
C886        H893   1.084       .  S
C887        C888   1.391   1_655  A
C887        H894   1.084       .  S
C888        C889   1.411       .  A
C888        H895   1.083       .  S
C889        C890   1.402       .  A
C890        H896   1.084       .  S
C897        C898   1.405       .  A
C897        C902   1.397       .  A
C898        C899   1.397       .  A
C898        H907   1.082       .  S
C899        C900   1.399       .  A
C899        H908   1.084       .  S
C900        C906   1.399       .  A
C900        C901   1.415       .  A
C901        C903   1.393       .  A
C901        C902   1.392       .  A
C902        H909   1.085       .  S
C903        C904   1.384       .  A
C903        H910   1.084       .  S
C904        C905   1.409       .  A
C904        H911   1.083       .  S
C905        C906   1.403       .  A
C906        H912   1.084       .  S
C913        C914   1.408   1_545  A
C913        C918   1.393   1_545  A
C914        C915   1.379       .  A
C914        H923   1.084   1_565  S
C915        C916   1.394       .  A
C915        H924   1.085       .  S
C916        C922   1.376       .  A
C916        C917   1.413       .  A
C917        C919   1.394   1_655  A
C917        C918   1.383       .  A
C918        H925   1.085   1_665  S
C919        C920   1.388       .  A
C919        H926   1.073       .  S
C920        C921   1.400   1_455  A
C920        H927   1.083       .  S
C921        C922   1.399       .  A
C922        H928   1.083       .  S
C929        C930   1.404   1_655  A
C929        C934   1.404       .  A
C930        C931   1.380       .  A
C930        H939   1.080       .  S
C931        C932   1.389   1_455  A
C931        H940   1.083       .  S
C932        C938   1.387       .  A
C932        C933   1.415       .  A
C933        C935   1.401       .  A
C933        C934   1.404       .  A
C934        H941   1.084       .  S
C935        C936   1.400       .  A
C935        H942   1.083       .  S
C936        C937   1.409       .  A
C936        H943   1.083       .  S
C937        C938   1.396       .  A
C938        H944   1.085   1_655  S
C945        C946   1.411       .  A
C945        C950   1.401       .  A
C946        C947   1.396       .  A
C946        H955   1.083       .  S
C947        C948   1.398       .  A
C947        H956   1.084       .  S
C948        C954   1.405       .  A
C948        C949   1.414       .  A
C949        C951   1.395   1_655  A
C949        C950   1.402       .  A
C950        H957   1.082   1_655  S
C951        C952   1.390       .  A
C951        H958   1.077       .  S
C952        C953   1.409   1_455  A
C952        H959   1.083       .  S
C953        C954   1.405       .  A
C954        H960   1.084       .  S
C961        C962   1.405       .  A
C961        C966   1.381   1_545  A
C962        C963   1.382   1_545  A
C962        H971   1.083       .  S
C963        C964   1.394       .  A
C963        H972   1.084       .  S
C964        C970   1.378       .  A
C964        C965   1.414       .  A
C965        C967   1.382   1_655  A
C965        C966   1.370       .  A
C966        H973   1.086   1_655  S
C967        C968   1.373       .  A
C967        H974   1.085       .  S
C968        C969   1.416   1_455  A
C968        H975   1.082       .  S
C969        C970   1.398       .  A
C970        H976   1.084       .  S
C977        C978   1.407   1_565  A
C977        C982   1.404       .  A
C978        C979   1.392       .  A
C978        H987   1.083       .  S
C979        C980   1.397   1_545  A
C979        H988   1.078       .  S
C980        C986   1.403       .  A
C980        C981   1.414       .  A
C981        C983   1.396       .  A
C981        C982   1.401       .  A
C982        H989   1.084       .  S
C983        C984   1.393       .  A
C983        H990   1.084       .  S
C984        C985   1.414       .  A
C984        H991   1.083       .  S
C985        C986   1.400       .  A
C986        H992   1.075   1_565  S
C993        C994   1.401   1_565  A
C993        C998   1.396       .  A
C994        C995   1.390       .  A
C994       H1003   1.083       .  S
C995        C996   1.393   1_545  A
C995       H1004   1.074       .  S
C996       C1002   1.385   1_556  A
C996        C997   1.414       .  A
C997        C999   1.392   1_556  A
C997        C998   1.381       .  A
C998       H1005   1.081       .  S
C999       C1000   1.376       .  A
C999       H1006   1.080   1_554  S
C1000      C1001   1.406       .  A
C1000      H1007   1.083       .  S
C1001      C1002   1.395       .  A
C1002      H1008   1.085   1_565  S
C1009      C1010   1.408   1_565  A
C1009      C1014   1.403       .  A
C1010      C1011   1.382       .  A
C1010      H1019   1.079       .  S
C1011      C1012   1.389   1_545  A
C1011      H1020   1.083       .  S
C1012      C1018   1.392       .  A
C1012      C1013   1.416       .  A
C1013      C1015   1.399       .  A
C1013      C1014   1.404       .  A
C1014      H1021   1.084       .  S
C1015      C1016   1.397       .  A
C1015      H1022   1.084       .  S
C1016      C1017   1.410       .  A
C1016      H1023   1.083       .  S
C1017      C1018   1.396       .  A
C1018      H1024   1.085   1_565  S
C1025      C1026   1.409       .  A
C1025      C1030   1.394       .  A
C1026      C1027   1.397       .  A
C1026      H1035   1.084       .  S
C1027      C1028   1.400       .  A
C1027      H1036   1.084       .  S
C1028      C1034   1.396   1_556  A
C1028      C1029   1.414       .  A
C1029      C1031   1.393   1_565  A
C1029      C1030   1.387       .  A
C1030      H1037   1.083   1_565  S
C1031      C1032   1.381   1_556  A
C1031      H1038   1.084       .  S
C1032      C1033   1.409   1_545  A
C1032      H1039   1.083       .  S
C1033      C1034   1.403       .  A
C1034      H1040   1.084       .  S
C1041      C1042   1.412       .  A
C1041      C1046   1.401   1_556  A
C1042      C1043   1.390       .  A
C1042      H1051   1.083       .  S
C1043      C1044   1.393       .  A
C1043      H1052   1.084       .  S
C1044      C1050   1.402       .  A
C1044      C1045   1.417   1_556  A
C1045      C1047   1.395       .  A
C1045      C1046   1.403       .  A
C1046      H1053   1.084       .  S
C1047      C1048   1.391       .  A
C1047      H1054   1.084       .  S
C1048      C1049   1.414       .  A
C1048      H1055   1.083       .  S
C1049      C1050   1.399   1_554  A
C1050      H1056   1.084       .  S
C1057      C1058   1.404       .  A
C1057      C1062   1.398   1_554  A
C1058      C1059   1.396       .  A
C1058      H1067   1.083       .  S
C1059      C1060   1.397       .  A
C1059      H1068   1.071       .  S
C1060      C1066   1.400       .  A
C1060      C1061   1.416   1_554  A
C1061      C1063   1.390       .  A
C1061      C1062   1.396       .  A
C1062      H1069   1.084       .  S
C1063      C1064   1.384       .  A
C1063      H1070   1.081       .  S
C1064      C1065   1.413   1_655  A
C1064      H1071   1.083   1_655  S
C1065      C1066   1.401   1_456  A
C1066      H1072   1.084       .  S
C1073      C1074   1.407       .  A
C1073      C1078   1.406   1_554  A
C1074      C1075   1.393       .  A
C1074      H1083   1.083       .  S
C1075      C1076   1.398       .  A
C1075      H1084   1.084       .  S
C1076      C1082   1.398       .  A
C1076      C1077   1.414   1_554  A
C1077      C1079   1.399       .  A
C1077      C1078   1.401       .  A
C1078      H1085   1.084       .  S
C1079      C1080   1.394       .  A
C1079      H1086   1.084       .  S
C1080      C1081   1.410       .  A
C1080      H1087   1.083       .  S
C1081      C1082   1.401   1_556  A
C1082      H1088   1.084       .  S
C1089      C1090   1.401   1_554  A
C1089      C1094   1.401       .  A
C1090      C1091   1.400       .  A
C1090      H1099   1.083       .  S
C1091      C1092   1.405       .  A
C1091      H1100   1.081       .  S
C1092      C1098   1.390       .  A
C1092      C1093   1.409   1_556  A
C1093      C1095   1.393       .  A
C1093      C1094   1.367       .  A
C1094      H1101   1.084       .  S
C1095      C1096   1.374       .  A
C1095      H1102   1.084       .  S
C1096      C1097   1.397   1_655  A
C1096      H1103   1.084       .  S
C1097      C1098   1.399   1_454  A
C1098      H1104   1.080   1_655  S
