geometry optimzed in LAMMPS
_audit_creation_date              2020-11-30 
_audit_creation_method            'lammps2cif' 
_symmetry_space_group_name_H-M    'P1' 
_symmetry_Int_Tables_number       1 
_symmetry_cell_setting            triclinic 
loop_ 
_symmetry_equiv_pos_as_xyz 
  x,y,z 
_cell_length_a                    30.92770494 
_cell_length_b                    31.210313723304267 
_cell_length_c                    19.976905961144986 
_cell_angle_alpha                 90.23565928395006 
_cell_angle_beta                  89.67755932444756 
_cell_angle_gamma                 89.79437325957167 
loop_ 
_atom_site_label 
_atom_site_type_symbol 
_atom_site_fract_x 
_atom_site_fract_y 
_atom_site_fract_z 
_atom_site_charge 
O1          O  0.03171795  0.51088493  0.09101077    -0.68100
O2          O  0.42283016  0.50262093  0.00550615    -0.68300
O3          O  0.46856564  0.45168228  0.08604287    -0.68200
O4          O  0.48218449  0.06474579  0.99452818    -0.68200
O5          O  0.51115988  0.03359737  0.90772000    -0.68200
O6          O  0.50359820  0.42299257  0.00238816    -0.68200
O7          O  0.45384141  0.46981540  0.92176007    -0.68100
O8          O  0.06237401  0.48524809  0.00118300    -0.68300
V9          V  0.47788874  0.50617042  0.04720066     1.35200
V10         V  0.50785674  0.47832864  0.96374419     1.35200
C11         C  0.06567994  0.49882359  0.06055419     0.81100
C12         C  0.41978849  0.48342642  0.94989126     0.81200
C13         C  0.48329923  0.41867890  0.05698491     0.81000
C14         C  0.49809403  0.06763491  0.93635060     0.81000
O15         O  0.26918372  0.27121292  0.65205130    -0.68100
O16         O  0.38150106  0.26003837  0.73164952    -0.68300
O17         O  0.33646385  0.21703815  0.63892451    -0.68200
O18         O  0.31604548  0.31570797  0.74201758    -0.68200
O19         O  0.28774861  0.27829523  0.82239802    -0.68200
O20         O  0.31014595  0.17704458  0.71799931    -0.68200
O21         O  0.35269321  0.22139140  0.81025486    -0.68100
O22         O  0.24319908  0.23157796  0.73164078    -0.68300
V23         V  0.32512372  0.26532263  0.69268521     1.35200
V24         V  0.29876434  0.22793708  0.76898267     1.35200
C25         C  0.23714551  0.25212097  0.67834227     0.81100
C26         C  0.38579574  0.23796346  0.78447117     0.81200
C27         C  0.32816364  0.18034008  0.66096111     0.81000
C28         C  0.30008850  0.31429208  0.80005873     0.81000
C29         C  0.18512605  0.46911679  0.10092612     0.01200
C30         C  0.21688894  0.10988993  0.34749601     0.01200
C31         C  0.32599349  0.43165278  0.85158515     0.01200
C32         C  0.35190619  0.06492372  0.59902646     0.01200
O33         O  0.00927505  0.03555339  0.59321045    -0.68100
O34         O  0.11826452  0.04359779  0.50394865    -0.68300
O35         O  0.07350860  0.09442086  0.58702863    -0.68200
O36         O  0.05602753  0.98497291  0.51010246    -0.68200
O37         O  0.02739889  0.01425868  0.42229115    -0.68200
O38         O  0.03844316  0.12396049  0.50513388    -0.68200
O39         O  0.08720901  0.07698205  0.42176927    -0.68100
O40         O  0.97814262  0.06256140  0.50567945    -0.68300
V41         V  0.06345149  0.04022085  0.54713969     1.35200
V42         V  0.03328373  0.06874420  0.46531687     1.35200
C43         C  0.97503852  0.04760974  0.56417913     0.81100
C44         C  0.12121828  0.06268586  0.44844367     0.81200
C45         C  0.05959690  0.12780701  0.55876934     0.81000
C46         C  0.04069471  0.98098408  0.45197955     0.81000
O47         O  0.28177728  0.28156366  0.16752327    -0.68100
O48         O  0.17215522  0.29270676  0.25424235    -0.68300
O49         O  0.21884746  0.34159245  0.17208220    -0.68200
O50         O  0.23341745  0.23232298  0.24983485    -0.68200
O51         O  0.26115409  0.26148821  0.33863515    -0.68200
O52         O  0.25402430  0.37072762  0.25438100    -0.68200
O53         O  0.20292946  0.32630829  0.33667450    -0.68100
O54         O  0.31252249  0.30772007  0.25619336    -0.68300
V55         V  0.22732365  0.28751816  0.21247160     1.35200
V56         V  0.25714828  0.31579650  0.29496746     1.35200
C57         C  0.31581816  0.29351847  0.19706493     0.81100
C58         C  0.16893235  0.31288607  0.30904801     0.81200
C59         C  0.23379250  0.37469984  0.19994974     0.81000
C60         C  0.24787406  0.22830544  0.30847777     0.81000
C61         C  0.11603230  0.22246769  0.64781490     0.01200
C62         C  0.47552961  0.18825759  0.89467533     0.01200
C63         C  0.07336387  0.36402972  0.40692484     0.01200
C64         C  0.43524199  0.32245311  0.15273598     0.01200
C65         C  0.03848528  0.35354494  0.35936054    -0.14900
C66         C  0.01468188  0.34224617  0.31504391     0.09200
C67         C  0.48849293  0.32686153  0.25686966     0.11100
C68         C  0.46568279  0.32083527  0.20898817    -0.15700
C69         C  0.47395576  0.21782022  0.95234528    -0.14900
C70         C  0.46713434  0.23964380  0.00138981     0.09200
C71         C  0.45566620  0.26463381  0.05802640     0.11100
C72         C  0.44547598  0.28822820  0.10358310    -0.15700
C73         C  0.08937846  0.22403808  0.70891822    -0.14900
C74         C  0.06734027  0.21889637  0.75815869     0.09200
C75         C  0.03985485  0.20841802  0.81212435     0.11100
C76         C  0.01306509  0.19873847  0.85335231    -0.15700
C77         C  0.07189604  0.33434336  0.46369918    -0.14900
C78         C  0.07823115  0.31080503  0.51027821     0.09200
C79         C  0.09108489  0.28316241  0.56209309     0.11100
C80         C  0.10329103  0.25765382  0.60300001    -0.15700
C81         C  0.11663406  0.35726406  0.37211410    -0.12800
C82         C  0.12646520  0.32028799  0.34004493    -0.28000
H83         H  0.14052829  0.38275412  0.37352666     0.16200
H84         H  0.10223337  0.29540690  0.33478137     0.16800
C85         C  0.35841048  0.29238539  0.16305770    -0.12800
C86         C  0.38995541  0.31947168  0.18243894    -0.28000
H87         H  0.36297268  0.27103279  0.12058410     0.16200
H88         H  0.38259415  0.34230185  0.22230833     0.16800
C89         C  0.06821798  0.17025722  0.58745606    -0.12800
C90         C  0.10713952  0.17989384  0.61369086    -0.28000
H91         H  0.04283438  0.19435346  0.58545114     0.16200
H92         H  0.13281507  0.15598251  0.61134937     0.16800
C93         C  0.04212601  0.44007659  0.41771686    -0.12800
C94         C  0.07058138  0.40928985  0.43563906    -0.28000
H95         H  0.01972308  0.43489873  0.37689686     0.16200
H96         H  0.09428872  0.41712148  0.47383054     0.16800
C97         C  0.39879602  0.06766737  0.57536584    -0.12800
C98         C  0.43169240  0.04207064  0.59492007    -0.28000
H99         H  0.40587669  0.09257178  0.53897599     0.16200
H100        H  0.42721230  0.01881085  0.63455881     0.16800
C101        C  0.32312142  0.46031710  0.79356317    -0.14900
C102        C  0.32619706  0.48118066  0.74311281     0.09200
C103        C  0.33338224  0.00031432  0.68016191     0.11100
C104        C  0.34247866  0.02630167  0.63813800    -0.15700
C105        C  0.24805732  0.18581057  0.34093007    -0.12800
C106        C  0.22011793  0.15529522  0.32063981    -0.28000
H107        H  0.26980143  0.18029276  0.38247673     0.16200
H108        H  0.19691679  0.16358160  0.28194193     0.16800
C109        C  0.25205173  0.09829490  0.39386286    -0.14900
C110        C  0.27662208  0.08636028  0.43666523     0.09200
C111        C  0.30237845  0.07296297  0.49084389     0.11100
C112        C  0.32406829  0.06547804  0.53944211    -0.15700
C113        C  0.17368421  0.10416275  0.38266463    -0.12800
C114        C  0.16339602  0.06794217  0.41560248    -0.28000
H115        H  0.15029310  0.13029073  0.38170288     0.16200
H116        H  0.18710577  0.04242945  0.42081140     0.16800
C117        C  0.21488791  0.46908244  0.04350715    -0.14900
C118        C  0.23789287  0.46270802  0.99567497     0.09200
C119        C  0.26487325  0.45107104  0.94160422     0.11100
C120        C  0.29028456  0.44087751  0.89850736    -0.15700
C121        C  0.19456004  0.00785999  0.14072023    -0.14900
C122        C  0.20399602  0.03278522  0.18445778     0.09200
C123        C  0.21342611  0.05882565  0.24027752     0.11100
C124        C  0.21795579  0.08091435  0.28935051    -0.15700
C125        C  0.19100607  0.42692919  0.13700680    -0.12800
C126        C  0.22774206  0.41692435  0.16952963    -0.28000
H127        H  0.16489461  0.40364673  0.13581007     0.16200
H128        H  0.25330145  0.44045273  0.17488503     0.16800
C129        C  0.43506755  0.19553186  0.85363735    -0.12800
C130        C  0.42793408  0.23115929  0.81672252    -0.28000
H131        H  0.41027559  0.17087383  0.85484549     0.16200
H132        H  0.45281898  0.25536096  0.81119008     0.18000
C133        C  0.34039933  0.14319587  0.61966245    -0.12800
C134        C  0.34019562  0.10305947  0.64293922    -0.28000
H135        H  0.35083895  0.14916740  0.56851715     0.16200
H136        H  0.33014202  0.09780525  0.69459173     0.16800
C137        C  0.29783757  0.35441322  0.83960287    -0.12800
C138        C  0.32558475  0.38634621  0.82396330    -0.28000
H139        H  0.27418083  0.35776107  0.87961445     0.16200
H140        H  0.35039041  0.37990973  0.78626529     0.16800
C141        C  0.19334210  0.25292751  0.64854213    -0.12800
C142        C  0.16314458  0.22442772  0.66919605    -0.28000
H143        H  0.18613414  0.27648976  0.61037446     0.16200
H144        H  0.17270350  0.20016797  0.70526119     0.16800
C145        C  0.47731419  0.37611152  0.08618067    -0.12800
C146        C  0.44080697  0.36563502  0.11935919    -0.28000
H147        H  0.50280306  0.35248585  0.07885176     0.16200
H148        H  0.41469753  0.38903690  0.12273401     0.16800
C149        C  0.36877267  0.43975727  0.88600711    -0.12800
C150        C  0.37749273  0.47654226  0.91879652    -0.28000
H151        H  0.39344633  0.41480230  0.88428487     0.16200
H152        H  0.35268050  0.50097295  0.92503595     0.16800
C153        C  0.10825963  0.49934838  0.09351052    -0.12800
C154        C  0.13956469  0.47189856  0.07319815    -0.28000
H155        H  0.11314572  0.52085366  0.13558348     0.16200
H156        H  0.13177747  0.44874162  0.03419593     0.16800
C157        C  0.50100855  0.10993966  0.90303815    -0.12800
C158        C  0.47522266  0.14280989  0.92269628    -0.28000
H159        H  0.02464684  0.11534201  0.86396793     0.16200
H160        H  0.45085803  0.13645524  0.96090401     0.16800
O161        O  0.03117166  0.01715063  0.08024420    -0.68100
O162        O  0.42049109  0.00463211  0.99251405    -0.68300
O163        O  0.46630904  0.95704716  0.07761471    -0.68200
O164        O  0.48498553  0.56170615  0.01143213    -0.68200
O165        O  0.51317141  0.53297156  0.92196857    -0.68200
O166        O  0.50173377  0.92583672  0.99662865    -0.68200
O167        O  0.45212141  0.96954730  0.91163978    -0.68100
O168        O  0.06178763  0.98842805  0.99270773    -0.68300
V169        V  0.47537426  0.01021889  0.03441837     1.35200
V170        V  0.50587797  0.97999570  0.95351622     1.35200
C171        C  0.06509035  0.00360284  0.05110480     0.81100
C172        C  0.41779505  0.98333228  0.93868092     0.81200
C173        C  0.48133903  0.92319777  0.05151648     0.81000
C174        C  0.50018228  0.56605843  0.95304580     0.81000
O175        O  0.26422126  0.75025221  0.66344913    -0.68100
O176        O  0.37201861  0.74685571  0.75461392    -0.68300
O177        O  0.32955022  0.69350953  0.67302278    -0.68200
O178        O  0.30845321  0.80406203  0.74598977    -0.68200
O179        O  0.28193392  0.77525466  0.83609661    -0.68200
O180        O  0.29199041  0.66537297  0.75387002    -0.68200
O181        O  0.34132418  0.71206812  0.83602603    -0.68100
O182        O  0.23242851  0.72750337  0.75368813    -0.68300
V183        V  0.31778999  0.74825200  0.71072986     1.35200
V184        V  0.28743913  0.72069053  0.79338815     1.35200
C185        C  0.22983393  0.73916783  0.69330325     0.81100
C186        C  0.37504362  0.72759421  0.80987047     0.81200
C187        C  0.31367065  0.66072114  0.70049591     0.81000
C188        C  0.29419760  0.80837441  0.80512992     0.81000
C189        C  0.18375684  0.97207921  0.09532830     0.01200
C190        C  0.21861738  0.61269852  0.34486765     0.01200
C191        C  0.32374788  0.92705022  0.84618819     0.01200
C192        C  0.35452320  0.56472505  0.59446204     0.01200
O193        O  0.01269993  0.54092585  0.59260789    -0.68100
O194        O  0.12078364  0.54408410  0.49965646    -0.68300
O195        O  0.07825666  0.59710213  0.58244894    -0.68200
O196        O  0.05718452  0.48691780  0.50932653    -0.68200
O197        O  0.03088009  0.51603747  0.41965467    -0.68200
O198        O  0.04062855  0.62585333  0.50265483    -0.68200
O199        O  0.08983655  0.57936990  0.41931037    -0.68100
O200        O  0.98114504  0.56395108  0.50276838    -0.68300
V201        V  0.06645019  0.54263222  0.54456447     1.35200
V202        V  0.03612324  0.57060556  0.46260683     1.35200
C203        C  0.97838105  0.55236630  0.56313821     0.81100
C204        C  0.12370865  0.56410463  0.44493582     0.81200
C205        C  0.06260967  0.63015964  0.55546598     0.81000
C206        C  0.04302102  0.48273252  0.45041100     0.81000
O207        O  0.27971383  0.78677557  0.16682291    -0.68100
O208        O  0.16965512  0.79463099  0.25339468    -0.68300
O209        O  0.21528865  0.84512822  0.17165778    -0.68200
O210        O  0.23242131  0.73589143  0.24816643    -0.68200
O211        O  0.25940427  0.76523074  0.33738776    -0.68200
O212        O  0.24954508  0.87474175  0.25447119    -0.68200
O213        O  0.19963061  0.82840823  0.33635907    -0.68100
O214        O  0.30960530  0.81336754  0.25589478    -0.68300
V215        V  0.22500682  0.79110855  0.21157150     1.35200
V216        V  0.25402650  0.81969177  0.29450977     1.35200
C217        C  0.31337075  0.79952095  0.19667099     0.81100
C218        C  0.16599602  0.81411726  0.30877088     0.81200
C219        C  0.22967400  0.87842986  0.19963272     0.81000
C220        C  0.24690608  0.73190432  0.30677060     0.81000
C221        C  0.10676211  0.72489489  0.66014667     0.01200
C222        C  0.47095385  0.68471801  0.91311701     0.01200
C223        C  0.07045210  0.86226585  0.41013049     0.01200
C224        C  0.43279650  0.83002898  0.15495996     0.01200
C225        C  0.03527311  0.85209580  0.36301288    -0.14900
C226        C  0.01068167  0.84333670  0.31840686     0.09200
C227        C  0.48430717  0.83319406  0.26168792     0.11100
C228        C  0.46206689  0.82924136  0.21267803    -0.15700
C229        C  0.47145524  0.71582010  0.96851153    -0.14900
C230        C  0.46566552  0.74012947  0.01474856     0.09200
C231        C  0.45448695  0.76845907  0.06722820     0.11100
C232        C  0.44393734  0.79441791  0.10911367    -0.15700
C233        C  0.07485062  0.72282200  0.71481876    -0.14900
C234        C  0.05238531  0.71613107  0.76303860     0.09200
C235        C  0.02757677  0.70494313  0.81955925     0.11100
C236        C  0.00403450  0.69496464  0.86505383    -0.15700
C237        C  0.06930120  0.83286134  0.46743320    -0.14900
C238        C  0.07489552  0.81093798  0.51623239     0.09200
C239        C  0.08590334  0.78544263  0.57182146     0.11100
C240        C  0.09615745  0.76083461  0.61538778    -0.15700
C241        C  0.11356069  0.85608401  0.37477028    -0.12800
C242        C  0.12351116  0.81997862  0.34057774    -0.28000
H243        H  0.13729254  0.88171440  0.37697809     0.16200
H244        H  0.09952849  0.79497590  0.33416235     0.16800
C245        C  0.35611446  0.79938688  0.16321817    -0.12800
C246        C  0.38690929  0.82739211  0.18256146    -0.28000
H247        H  0.36158548  0.77745521  0.12172597     0.16200
H248        H  0.37859075  0.85077747  0.22117718     0.16800
C249        C  0.06853549  0.67261333  0.58592573    -0.12800
C250        C  0.10402505  0.68296435  0.62158500    -0.28000
H251        H  0.04274682  0.69594789  0.57960994     0.16200
H252        H  0.13058743  0.66014536  0.62481322     0.16800
C253        C  0.03971980  0.93846591  0.41931038    -0.12800
C254        C  0.06767455  0.90752582  0.43837210    -0.28000
H255        H  0.01754945  0.93339943  0.37815759     0.16200
H256        H  0.09120710  0.91532119  0.47685264     0.16800
C257        C  0.39824726  0.55705778  0.56158263    -0.12800
C258        C  0.43480137  0.54796144  0.59509469    -0.28000
H259        H  0.40020053  0.55964326  0.50728479     0.16200
H260        H  0.43400326  0.54393122  0.64906717     0.16800
C261        C  0.32067309  0.95426464  0.78682220    -0.14900
C262        C  0.32432847  0.97493715  0.73644048     0.09200
C263        C  0.33426336  0.50539865  0.68495605     0.11100
C264        C  0.34315252  0.52923410  0.63963150    -0.15700
C265        C  0.24792378  0.68928338  0.33873466    -0.12800
C266        C  0.22126359  0.65794789  0.31726146    -0.28000
H267        H  0.26904489  0.68438625  0.38122907     0.16200
H268        H  0.19854725  0.66546222  0.27752190     0.16800
C269        C  0.25312586  0.60234391  0.39279938    -0.14900
C270        C  0.27627239  0.59089202  0.43762138     0.09200
C271        C  0.30043420  0.57721019  0.49314787     0.11100
C272        C  0.32254834  0.56842138  0.54060941    -0.15700
C273        C  0.17531788  0.60623088  0.37909589    -0.12800
C274        C  0.16566165  0.56980484  0.41201603    -0.28000
H275        H  0.15149651  0.63196642  0.37779286     0.16200
H276        H  0.18976921  0.54466941  0.41737191     0.16800
C277        C  0.21431461  0.97067720  0.03863464    -0.14900
C278        C  0.23732856  0.96286202  0.99112613     0.09200
C279        C  0.26377245  0.94955776  0.93700831     0.11100
C280        C  0.28850838  0.93797250  0.89359261    -0.15700
C281        C  0.19599700  0.50476989  0.14642317    -0.14900
C282        C  0.20604066  0.53080550  0.18816600     0.09200
C283        C  0.21624680  0.55906388  0.24087634     0.11100
C284        C  0.22086559  0.58291418  0.28783959    -0.15700
C285        C  0.18837791  0.93018381  0.13285165    -0.12800
C286        C  0.22408437  0.92046204  0.16828081    -0.28000
H287        H  0.16226342  0.90695722  0.13038567     0.16200
H288        H  0.24954028  0.94398758  0.17469969     0.16800
C289        C  0.42772058  0.68876752  0.87840584    -0.12800
C290        C  0.41695532  0.72380300  0.84300347    -0.28000
H291        H  0.40485394  0.66240538  0.88150456     0.16200
H292        H  0.44018432  0.74944893  0.83597698     0.18000
C293        C  0.31850606  0.61818969  0.66986640    -0.12800
C294        C  0.35346440  0.60666627  0.63317541    -0.28000
H295        H  0.29211269  0.59573788  0.67683818     0.16200
H296        H  0.38066358  0.62851696  0.62914913     0.16800
C297        C  0.29319406  0.85097156  0.83775896    -0.12800
C298        C  0.32251250  0.88101752  0.82075609    -0.28000
H299        H  0.26941976  0.85694714  0.87686882     0.16200
H300        H  0.34720759  0.87239382  0.78397864     0.16800
C301        C  0.18780419  0.73799403  0.65808140    -0.12800
C302        C  0.15085186  0.73076768  0.69215924    -0.28000
H303        H  0.18722633  0.74161511  0.60404163     0.16200
H304        H  0.15268985  0.72864259  0.74648763     0.16800
C305        C  0.47546058  0.88162702  0.08452990    -0.12800
C306        C  0.43901636  0.87232842  0.11893081    -0.28000
H307        H  0.50080459  0.85769306  0.07873718     0.16200
H308        H  0.41301693  0.89590675  0.12056754     0.16800
C309        C  0.36684651  0.93627966  0.87932079    -0.12800
C310        C  0.37556158  0.97444221  0.90842854    -0.28000
H311        H  0.39153792  0.91135529  0.87949443     0.16200
H312        H  0.35056956  0.99887624  0.91239044     0.16800
C313        C  0.10757629  0.00401391  0.08460593    -0.12800
C314        C  0.13849710  0.97547774  0.06629815    -0.28000
H315        H  0.11258976  0.02623632  0.12571788     0.16200
H316        H  0.13057799  0.95182471  0.02810977     0.16800
C317        C  0.50138026  0.60869309  0.92139679    -0.12800
C318        C  0.47484106  0.64026360  0.94324046    -0.28000
H319        H  0.02038279  0.61356772  0.87738836     0.16200
H320        H  0.45243998  0.63317388  0.98391884     0.16800
O321        O  0.53216748  0.51055241  0.09200904    -0.68100
O322        O  0.92216696  0.50270336  0.00540519    -0.68300
O323        O  0.96835552  0.45183813  0.08552626    -0.68200
O324        O  0.98349260  0.06607691  0.99641082    -0.68200
O325        O  0.01195032  0.03501152  0.90911629    -0.68200
O326        O  0.00339923  0.42330587  0.00174940    -0.68200
O327        O  0.95293884  0.46981967  0.92151932    -0.68100
O328        O  0.56301403  0.48453701  0.00260961    -0.68300
V329        V  0.97732353  0.50634514  0.04667477     1.35200
V330        V  0.00708975  0.47864415  0.96293503     1.35200
C331        C  0.56617632  0.49818129  0.06196328     0.81100
C332        C  0.91898052  0.48354291  0.94979509     0.81200
C333        C  0.98334904  0.41892552  0.05655745     0.81000
C334        C  0.99902414  0.06901450  0.93798701     0.81000
O335        O  0.76864301  0.27146621  0.65184103    -0.68100
O336        O  0.88074121  0.26137016  0.73283411    -0.68300
O337        O  0.83622622  0.21771812  0.64025852    -0.68200
O338        O  0.81493921  0.31686565  0.74155341    -0.68200
O339        O  0.78667407  0.27984743  0.82239904    -0.68200
O340        O  0.80965348  0.17804016  0.71952979    -0.68200
O341        O  0.85181001  0.22296833  0.81161344    -0.68100
O342        O  0.74253996  0.23234301  0.73195751    -0.68300
V343        V  0.82446604  0.26620356  0.69318338     1.35200
V344        V  0.79798848  0.22917186  0.76980141     1.35200
C345        C  0.73663147  0.25226200  0.67805318     0.81100
C346        C  0.88496493  0.23945964  0.78587327     0.81200
C347        C  0.82781623  0.18113159  0.66256305     0.81000
C348        C  0.79888528  0.31576366  0.79953112     0.81000
C349        C  0.68553451  0.46803699  0.10265935     0.01200
C350        C  0.71729175  0.10882742  0.34920356     0.01200
C351        C  0.82483611  0.43331109  0.85049047     0.01200
C352        C  0.85215451  0.06579760  0.60127417     0.01200
O353        O  0.50881724  0.03313633  0.59218434    -0.68100
O354        O  0.61847046  0.04131499  0.50461670    -0.68300
O355        O  0.57319178  0.09197189  0.58709598    -0.68200
O356        O  0.55619794  0.98250851  0.50983601    -0.68200
O357        O  0.52818759  0.01181165  0.42157108    -0.68200
O358        O  0.53858255  0.12153303  0.50475815    -0.68200
O359        O  0.58785385  0.07475980  0.42210799    -0.68100
O360        O  0.47827978  0.06011604  0.50413576    -0.68300
V361        V  0.56335401  0.03779307  0.54698733     1.35200
V362        V  0.53369894  0.06633279  0.46473982     1.35200
C363        C  0.47477491  0.04528035  0.56263936     0.81100
C364        C  0.62174125  0.06066475  0.44934812     0.81200
C365        C  0.55951650  0.12537045  0.55862083     0.81000
C366        C  0.54122619  0.97850366  0.45149478     0.81000
O367        O  0.78440032  0.28014877  0.16807644    -0.68100
O368        O  0.67392080  0.29058020  0.25194045    -0.68300
O369        O  0.72111269  0.33991636  0.17108502    -0.68200
O370        O  0.73545980  0.23060950  0.24931267    -0.68200
O371        O  0.76248252  0.25997744  0.33849534    -0.68200
O372        O  0.75498144  0.36925165  0.25452890    -0.68200
O373        O  0.70362881  0.32407131  0.33543953    -0.68100
O374        O  0.81411345  0.30683089  0.25723148    -0.68300
V375        V  0.72950830  0.28580080  0.21165238     1.35200
V376        V  0.75832185  0.31426592  0.29488571     1.35200
C377        C  0.81804067  0.29250674  0.19825849     0.81100
C378        C  0.67002893  0.31042949  0.30689780     0.81200
C379        C  0.73530606  0.37314863  0.19960317     0.81000
C380        C  0.74941902  0.22673619  0.30829104     0.81000
C381        C  0.61616006  0.22047243  0.64643889     0.01200
C382        C  0.97501434  0.18929864  0.89550404     0.01200
C383        C  0.57343737  0.36034362  0.40332266     0.01200
C384        C  0.93714340  0.32288454  0.15478410     0.01200
C385        C  0.53873132  0.34971832  0.35559548    -0.14900
C386        C  0.51448055  0.33880103  0.31167221     0.09200
C387        C  0.98961895  0.32942234  0.25962635     0.11100
C388        C  0.96746108  0.32242507  0.21129079    -0.15700
C389        C  0.97397065  0.21851060  0.95360388    -0.14900
C390        C  0.96803431  0.24000538  0.00325589     0.09200
C391        C  0.95764010  0.26476335  0.06060794     0.11100
C392        C  0.94790414  0.28837587  0.10636856    -0.15700
C393        C  0.58970162  0.22226865  0.70773342    -0.14900
C394        C  0.56788254  0.21731092  0.75725655     0.09200
C395        C  0.54058082  0.20705082  0.81155426     0.11100
C396        C  0.51379081  0.19754192  0.85288573    -0.15700
C397        C  0.57190323  0.33069739  0.46012594    -0.14900
C398        C  0.57811156  0.30745983  0.50709969     0.09200
C399        C  0.59086735  0.28035197  0.55963298     0.11100
C400        C  0.60312729  0.25529239  0.60115709    -0.15700
C401        C  0.61688196  0.35401710  0.36904578    -0.12800
C402        C  0.62724618  0.31723752  0.33699802    -0.28000
H403        H  0.64055338  0.37970702  0.37092846     0.16200
H404        H  0.60330179  0.29213672  0.33114296     0.16800
C405        C  0.86084556  0.29170460  0.16502813    -0.12800
C406        C  0.89186196  0.31939419  0.18431442    -0.28000
H407        H  0.86590938  0.27016189  0.12292304     0.16200
H408        H  0.88396645  0.34239685  0.22370085     0.16800
C409        C  0.56820150  0.16783389  0.58724870    -0.12800
C410        C  0.60726106  0.17767100  0.61292391    -0.28000
H411        H  0.54275236  0.19186778  0.58541342     0.16200
H412        H  0.63301726  0.15385547  0.61045804     0.16800
C413        C  0.54241816  0.43645341  0.41267501    -0.12800
C414        C  0.57032582  0.40553547  0.43189434    -0.28000
H415        H  0.52069910  0.43143632  0.37092585     0.16200
H416        H  0.59348913  0.41327632  0.47093302     0.16800
C417        C  0.89894628  0.06915258  0.57751755    -0.12800
C418        C  0.93218196  0.04402256  0.59698385    -0.28000
H419        H  0.90562899  0.09407158  0.54097019     0.16200
H420        H  0.92809601  0.02075797  0.63671836     0.16800
C421        C  0.82245450  0.46259044  0.79311351    -0.14900
C422        C  0.82631359  0.48422630  0.74356599     0.09200
C423        C  0.83414775  0.00130680  0.68273920     0.11100
C424        C  0.84321495  0.02716332  0.64053938    -0.15700
C425        C  0.74923607  0.18438399  0.34119908    -0.12800
C426        C  0.72054564  0.15421964  0.32214410    -0.28000
H427        H  0.77139607  0.17872029  0.38216542     0.16200
H428        H  0.69702897  0.16269179  0.28400542     0.16800
C429        C  0.75258718  0.09725356  0.39527226    -0.14900
C430        C  0.77716420  0.08560461  0.43821766     0.09200
C431        C  0.80280450  0.07276183  0.49279302     0.11100
C432        C  0.82437016  0.06581529  0.54168276    -0.15700
C433        C  0.67423650  0.10295315  0.38477008    -0.12800
C434        C  0.66410050  0.06650276  0.41732143    -0.28000
H435        H  0.65072891  0.12897621  0.38393817     0.16200
H436        H  0.68792936  0.04108170  0.42232630     0.16800
C437        C  0.71495916  0.46871464  0.04484581    -0.14900
C438        C  0.73757055  0.46308591  0.99634941     0.09200
C439        C  0.76408812  0.45225581  0.94133886     0.11100
C440        C  0.78921997  0.44249143  0.89761523    -0.15700
C441        C  0.69250996  0.00701640  0.14316267    -0.14900
C442        C  0.70237349  0.03173477  0.18691613     0.09200
C443        C  0.71277033  0.05768436  0.24235634     0.11100
C444        C  0.71803638  0.07981485  0.29116134    -0.15700
C445        C  0.69191818  0.42557753  0.13787066    -0.12800
C446        C  0.72894718  0.41547694  0.16954134    -0.28000
H447        H  0.66590295  0.40218945  0.13678581     0.16200
H448        H  0.75441832  0.43910223  0.17486489     0.16800
C449        C  0.93430217  0.19690206  0.85504670    -0.12800
C450        C  0.92710463  0.23262417  0.81829295    -0.28000
H451        H  0.90946032  0.17229845  0.85631803     0.16200
H452        H  0.95204003  0.25676451  0.81266285     0.18000
C453        C  0.84006873  0.14392920  0.62151707    -0.12800
C454        C  0.83998545  0.10386523  0.64497892    -0.28000
H455        H  0.85055336  0.14983041  0.57037160     0.16200
H456        H  0.82991111  0.09864865  0.69663287     0.16800
C457        C  0.79650568  0.35612570  0.83847826    -0.12800
C458        C  0.82395477  0.38819225  0.82213417    -0.28000
H459        H  0.77327938  0.35938553  0.87910500     0.16200
H460        H  0.84845299  0.38185954  0.78392424     0.16800
C461        C  0.69302419  0.25214610  0.64749659    -0.12800
C462        C  0.66332842  0.22292344  0.66754118    -0.28000
H463        H  0.68549325  0.27574309  0.60953391     0.16200
H464        H  0.67325354  0.19871976  0.70345985     0.16800
C465        C  0.97805395  0.37643687  0.08630083    -0.12800
C466        C  0.94193623  0.36580157  0.12035179    -0.28000
H467        H  0.00380956  0.35309610  0.07898554     0.16200
H468        H  0.91555380  0.38890614  0.12366749     0.16800
C469        C  0.86765983  0.44065742  0.88515554    -0.12800
C470        C  0.87663531  0.47707346  0.91873359    -0.28000
H471        H  0.89213339  0.41552557  0.88287432     0.16200
H472        H  0.85200405  0.50163936  0.92542298     0.16800
C473        C  0.60866379  0.49847272  0.09529443    -0.12800
C474        C  0.63982653  0.47072200  0.07540040    -0.28000
H475        H  0.61366074  0.52022430  0.13702450     0.16200
H476        H  0.63193388  0.44746825  0.03659043     0.16800
C477        C  0.00159111  0.11131248  0.90457813    -0.12800
C478        C  0.97485022  0.14371029  0.92309112    -0.28000
H479        H  0.52351526  0.11362779  0.86161143     0.16200
H480        H  0.95011192  0.13696244  0.96054615     0.16800
O481        O  0.52952934  0.01632908  0.07936552    -0.68100
O482        O  0.92155724  0.00635977  0.99505242    -0.68300
O483        O  0.96756539  0.95815161  0.07904101    -0.68200
O484        O  0.98410418  0.56188799  0.01098106    -0.68200
O485        O  0.01185117  0.53329380  0.92107220    -0.68200
O486        O  0.00220905  0.92699216  0.99721174    -0.68200
O487        O  0.95251917  0.97147583  0.91333577    -0.68100
O488        O  0.56084933  0.98765397  0.99238856    -0.68300
V489        V  0.97670327  0.01145668  0.03611093     1.35200
V490        V  0.00654960  0.98130480  0.95455020     1.35200
C491        C  0.56369951  0.00288885  0.05081877     0.81100
C492        C  0.91845539  0.98538739  0.94100291     0.81200
C493        C  0.98210733  0.92427103  0.05235417     0.81000
C494        C  0.99892300  0.56630624  0.95239886     0.81000
O495        O  0.76185869  0.75705144  0.66905377    -0.68100
O496        O  0.87084785  0.74821304  0.75574390    -0.68300
O497        O  0.82586849  0.69780148  0.67314423    -0.68200
O498        O  0.80879015  0.80713388  0.75182513    -0.68200
O499        O  0.78053228  0.77774061  0.84018340    -0.68200
O500        O  0.79080374  0.66848854  0.75562739    -0.68200
O501        O  0.84004914  0.71467640  0.83835623    -0.68100
O502        O  0.73088727  0.73034358  0.75732990    -0.68300
V503        V  0.81605172  0.75199684  0.71391571     1.35200
V504        V  0.78607878  0.72348887  0.79627505     1.35200
C505        C  0.72775176  0.74490342  0.69862695     0.81100
C506        C  0.87387486  0.72921089  0.81122120     0.81200
C507        C  0.81131884  0.66456111  0.70102672     0.81000
C508        C  0.79390967  0.81096843  0.81057471     0.81000
C509        C  0.68215490  0.97162397  0.09687293     0.01200
C510        C  0.71785130  0.61226890  0.34618865     0.01200
C511        C  0.82398225  0.92939420  0.85000801     0.01200
C512        C  0.85529807  0.56912203  0.59651618     0.01200
O513        O  0.51116655  0.53498290  0.58899441    -0.68100
O514        O  0.61949743  0.54101409  0.49755880    -0.68300
O515        O  0.57544012  0.59220605  0.58112801    -0.68200
O516        O  0.55674682  0.48272437  0.50495932    -0.68200
O517        O  0.53062578  0.51233911  0.41554831    -0.68200
O518        O  0.53767134  0.62134884  0.50182133    -0.68200
O519        O  0.58850247  0.57686521  0.41788136    -0.68100
O520        O  0.47958807  0.55834689  0.49936372    -0.68300
V521        V  0.56496014  0.53810245  0.54165521     1.35200
V522        V  0.53460360  0.56650514  0.46008338     1.35200
C523        C  0.47685295  0.54631046  0.55953424     0.81100
C524        C  0.62249081  0.56187843  0.44362352     0.81200
C525        C  0.55923169  0.62529944  0.55508386     0.81000
C526        C  0.54289870  0.47890506  0.44583873     0.81000
O527        O  0.78074510  0.78592492  0.16644719    -0.68100
O528        O  0.67011622  0.79360199  0.25135105    -0.68300
O529        O  0.71605894  0.84411989  0.17011365    -0.68200
O530        O  0.73296423  0.73497475  0.24741549    -0.68200
O531        O  0.75969910  0.76454809  0.33662997    -0.68200
O532        O  0.74941335  0.87398425  0.25359784    -0.68200
O533        O  0.69955718  0.82727251  0.33488374    -0.68100
O534        O  0.80999611  0.81310223  0.25560159    -0.68300
V535        V  0.72573058  0.79015624  0.21037767     1.35200
V536        V  0.75417635  0.81896314  0.29362340     1.35200
C537        C  0.81415318  0.79911741  0.19651824     0.81100
C538        C  0.66611841  0.81293083  0.30680853     0.81200
C539        C  0.72980683  0.87754982  0.19851594     0.81000
C540        C  0.74715153  0.73115163  0.30623633     0.81000
C541        C  0.60751012  0.71905606  0.65689170     0.01200
C542        C  0.96946942  0.68497696  0.91361733     0.01200
C543        C  0.57046174  0.85951627  0.40962611     0.01200
C544        C  0.93344860  0.83076182  0.15523585     0.01200
C545        C  0.53516528  0.84965151  0.36256217    -0.14900
C546        C  0.51041385  0.84134958  0.31796253     0.09200
C547        C  0.98474628  0.83458368  0.26214869     0.11100
C548        C  0.96260337  0.83022685  0.21310953    -0.15700
C549        C  0.97064053  0.71588991  0.96920431    -0.14900
C550        C  0.96556743  0.74032457  0.01545862     0.09200
C551        C  0.95511936  0.76897389  0.06784533     0.11100
C552        C  0.94485601  0.79514218  0.10956919    -0.15700
C553        C  0.57743679  0.72013815  0.71414221    -0.14900
C554        C  0.55521172  0.71492927  0.76320867     0.09200
C555        C  0.52980859  0.70459201  0.81971020     0.11100
C556        C  0.50576541  0.69484418  0.86483126    -0.15700
C557        C  0.56980557  0.82928421  0.46598896    -0.14900
C558        C  0.57586034  0.80625011  0.51344109     0.09200
C559        C  0.58724027  0.77954020  0.56753117     0.11100
C560        C  0.59752155  0.75453788  0.61060245    -0.15700
C561        C  0.61347144  0.85403577  0.37373013    -0.12800
C562        C  0.62350259  0.81843118  0.33831755    -0.28000
H563        H  0.63713062  0.87969510  0.37680226     0.16200
H564        H  0.59960188  0.79344046  0.33110534     0.16800
C565        C  0.85703387  0.79934672  0.16342447    -0.12800
C566        C  0.88748300  0.82780733  0.18259709    -0.28000
H567        H  0.86285658  0.77727961  0.12222189     0.16200
H568        H  0.87882775  0.85124973  0.22094769     0.16800
C569        C  0.56515898  0.66740885  0.58649033    -0.12800
C570        C  0.60136789  0.67673662  0.62080618    -0.28000
H571        H  0.53995741  0.69138762  0.58040523     0.16200
H572        H  0.62713758  0.65293276  0.62282965     0.16800
C573        C  0.54027109  0.93593391  0.41886244    -0.12800
C574        C  0.56743922  0.90453556  0.43893363    -0.28000
H575        H  0.51886126  0.93124305  0.37664703     0.16200
H576        H  0.59044465  0.91192840  0.47834851     0.16800
C577        C  0.89953599  0.56243512  0.56451294    -0.12800
C578        C  0.93617345  0.55424551  0.59854476    -0.28000
H579        H  0.90171290  0.56463923  0.51019762     0.16200
H580        H  0.93522289  0.55051583  0.65256202     0.16800
C581        C  0.82107394  0.95608301  0.79008002    -0.14900
C582        C  0.82490564  0.97631847  0.73932221     0.09200
C583        C  0.83525998  0.50931284  0.68657920     0.11100
C584        C  0.84445438  0.53356736  0.64191593    -0.15700
C585        C  0.74775230  0.68867336  0.33879518    -0.12800
C586        C  0.72047679  0.65753345  0.31837332    -0.28000
H587        H  0.76919504  0.68374445  0.38088815     0.16200
H588        H  0.69759373  0.66508505  0.27888768     0.16800
C589        C  0.75220622  0.60222992  0.39462408    -0.14900
C590        C  0.77582385  0.59153796  0.43935166     0.09200
C591        C  0.80093575  0.57912906  0.49464973     0.11100
C592        C  0.82356443  0.57153425  0.54206515    -0.15700
C593        C  0.67433854  0.60539908  0.37978138    -0.12800
C594        C  0.66468972  0.56859516  0.41174454    -0.28000
H595        H  0.65032441  0.63094667  0.37839738     0.16200
H596        H  0.68903530  0.54367265  0.41698894     0.16800
C597        C  0.71279994  0.97144016  0.04041775    -0.14900
C598        C  0.73634388  0.96461978  0.99326549     0.09200
C599        C  0.76354893  0.95212275  0.93976112     0.11100
C600        C  0.78873196  0.94075809  0.89693590    -0.15700
C601        C  0.69636784  0.50347379  0.14862729    -0.14900
C602        C  0.70632575  0.52963620  0.19025037     0.09200
C603        C  0.71633495  0.55827325  0.24258518     0.11100
C604        C  0.72065866  0.58241332  0.28927377    -0.15700
C605        C  0.68749356  0.92935896  0.13320747    -0.12800
C606        C  0.72363020  0.91965617  0.16763728    -0.28000
H607        H  0.66158335  0.90591281  0.13074368     0.16200
H608        H  0.74887422  0.94340706  0.17405117     0.16800
C609        C  0.92614654  0.68962932  0.87940052    -0.12800
C610        C  0.91588858  0.72470432  0.84370283    -0.28000
H611        H  0.90284467  0.66367168  0.88298838     0.16200
H612        H  0.93952190  0.74992260  0.83615347     0.18000
C613        C  0.81691776  0.62222881  0.66994227    -0.12800
C614        C  0.85266573  0.61124350  0.63462536    -0.28000
H615        H  0.79087636  0.59929709  0.67622705     0.16200
H616        H  0.87950880  0.63358342  0.63154363     0.16800
C617        C  0.79341360  0.85330381  0.84379771    -0.12800
C618        C  0.82258214  0.88323625  0.82572063    -0.28000
H619        H  0.76987180  0.85941018  0.88319610     0.16200
H620        H  0.84706978  0.87440549  0.78871702     0.16800
C621        C  0.68519442  0.74679085  0.66539043    -0.12800
C622        C  0.65295375  0.72072242  0.68546976    -0.28000
H623        H  0.68103702  0.76821703  0.62325532     0.16200
H624        H  0.65987767  0.69760928  0.72471015     0.16800
C625        C  0.97609771  0.88256775  0.08502637    -0.12800
C626        C  0.93956639  0.87309172  0.11913731    -0.28000
H627        H  0.00150149  0.85869065  0.07930343     0.16200
H628        H  0.91349801  0.89659203  0.12069505     0.16800
C629        C  0.86706631  0.93856682  0.88293355    -0.12800
C630        C  0.87606969  0.97683365  0.91128839    -0.28000
H631        H  0.89159914  0.91348308  0.88349819     0.16200
H632        H  0.85129448  0.00149886  0.91501212     0.16800
C633        C  0.60595049  0.00341358  0.08506730    -0.12800
C634        C  0.63693560  0.97472901  0.06761616    -0.28000
H635        H  0.61076119  0.02589120  0.12590215     0.16200
H636        H  0.62926148  0.95096184  0.02947713     0.16800
C637        C  0.99980310  0.60894403  0.92091080    -0.12800
C638        C  0.97322422  0.64037904  0.94314150    -0.28000
H639        H  0.52203068  0.61316481  0.87791226     0.16200
H640        H  0.95092450  0.63315901  0.98389214     0.16800
loop_ 
_geom_bond_atom_site_label_1 
_geom_bond_atom_site_label_2 
_geom_bond_distance 
_geom_bond_site_symmetry_2 
_ccdc_geom_bond_type 
O1           C11   1.266       .  A
O1          V329   1.911   1_455  S
O2           C12   1.264   1_554  A
O2            V9   1.903       .  S
O3           C13   1.263       .  A
O3            V9   1.894       .  S
O4           C14   1.263       .  A
O4          V169   1.894   1_556  S
O5           C14   1.268       .  A
O5          V170   1.917   1_545  S
O6           C13   1.263       .  A
O6           V10   1.899   1_554  S
O7           C12   1.262       .  A
O7           V10   1.893       .  S
O8           C11   1.263       .  A
O8          V330   1.888   1_554  S
V9          O321   1.912       .  S
V9          O164   1.891       .  S
V9           V10   2.088   1_554  T
V10         O165   1.909       .  S
V10         O328   1.889   1_556  S
C11         C153   1.476       .  S
C12         C150   1.467       .  S
C13         C145   1.465       .  S
C14         C157   1.484       .  S
O15          C25   1.270       .  A
O15          V23   1.924       .  S
O16          C26   1.270       .  A
O16          V23   1.920       .  S
O17          C27   1.256       .  A
O17          V23   1.878       .  S
O18          C28   1.259       .  A
O18          V23   1.872       .  S
O19          C28   1.270       .  A
O19          V24   1.924       .  S
O20          C27   1.270       .  A
O20          V24   1.914       .  S
O21          C26   1.257       .  A
O21          V24   1.876       .  S
O22          C25   1.260       .  A
O22          V24   1.881       .  S
V23          V24   2.087       .  T
C25         C141   1.483       .  S
C26         C130   1.472       .  S
C27         C133   1.467       .  S
C28         C137   1.479       .  S
C29         C117   1.467       .  S
C29         C281   1.475       .  S
C29         C125   1.515       .  S
C29         C154   1.519       .  S
C30         C109   1.477       .  S
C30         C124   1.469       .  S
C30         C106   1.521       .  S
C30         C113   1.518       .  S
C31         C101   1.470       .  S
C31         C120   1.471       .  S
C31         C138   1.516       .  S
C31         C149   1.516       .  S
C32         C104   1.468       .  S
C32         C112   1.473       .  S
C32          C97   1.526       .  S
C32         C134   1.517       .  S
O33          C43   1.267   1_455  A
O33          V41   1.913       .  S
O34          C44   1.264       .  A
O34          V41   1.901       .  S
O35          C45   1.263       .  A
O35          V41   1.894       .  S
O36          C46   1.263       .  A
O36          V41   1.889   1_565  S
O37          C46   1.267   1_545  A
O37          V42   1.912       .  S
O38          C45   1.264       .  A
O38          V42   1.903       .  S
O39          C44   1.263       .  A
O39          V42   1.896       .  S
O40          C43   1.263       .  A
O40          V42   1.893   1_655  S
V41          V42   2.088       .  T
C43         C418   1.480       .  S
C44         C114   1.467       .  S
C45          C89   1.467       .  S
C46         C253   1.477       .  S
O47          C57   1.266       .  A
O47          V55   1.912       .  S
O48          C58   1.264       .  A
O48          V55   1.901       .  S
O49          C59   1.262       .  A
O49          V55   1.892       .  S
O50          C60   1.263       .  A
O50          V55   1.889       .  S
O51          C60   1.267       .  A
O51          V56   1.913       .  S
O52          C59   1.264       .  A
O52          V56   1.902       .  S
O53          C58   1.262       .  A
O53          V56   1.895       .  S
O54          C57   1.263       .  A
O54          V56   1.891       .  S
V55          V56   2.087       .  T
C57          C85   1.479       .  S
C58          C82   1.466       .  S
C59         C126   1.465       .  S
C60         C105   1.479       .  S
C61          C73   1.470       .  S
C61          C80   1.474       .  S
C61          C90   1.518       .  S
C61         C142   1.522       .  S
C62          C69   1.474       .  S
C62         C396   1.475       .  S
C62         C129   1.517       .  S
C62         C158   1.527       .  S
C63          C65   1.478       .  S
C63          C77   1.468       .  S
C63          C81   1.518       .  S
C63          C94   1.524       .  S
C64          C68   1.471       .  S
C64          C72   1.480       .  S
C64          C86   1.521       .  S
C64         C146   1.516       .  S
C65          C66   1.207       .  T
C66         C387   1.412   1_455  S
C67          C68   1.206       .  T
C67         C386   1.411       .  S
C69          C70   1.208   1_556  T
C70          C71   1.414       .  S
C71          C72   1.208       .  T
C73          C74   1.205       .  T
C74          C75   1.409       .  S
C75          C76   1.205       .  T
C76         C382   1.475   1_455  S
C77          C78   1.204       .  T
C78          C79   1.408       .  S
C79          C80   1.204       .  T
C81          C82   1.351       .  D
C81          H83   1.088       .  S
C82          H84   1.086       .  S
C85          C86   1.351       .  D
C85          H87   1.085       .  S
C86          H88   1.089       .  S
C89          C90   1.350       .  D
C89          H91   1.086       .  S
C90          H92   1.088       .  S
C93         C206   1.481       .  S
C93          C94   1.351       .  D
C93          H95   1.085       .  S
C94          H96   1.089       .  S
C97          C98   1.352       .  D
C97          H99   1.088       .  S
C98         C363   1.481       .  S
C98         H100   1.085       .  S
C101        C102   1.206       .  T
C102        C263   1.410       .  S
C103        C104   1.203       .  T
C103        C262   1.405   1_545  S
C105        C106   1.351       .  D
C105        H107   1.085       .  S
C106        H108   1.089       .  S
C109        C110   1.206       .  T
C110        C111   1.411       .  S
C111        C112   1.206       .  T
C113        C114   1.349       .  D
C113        H115   1.088       .  S
C114        H116   1.086       .  S
C117        C118   1.204   1_554  T
C118        C119   1.407       .  S
C119        C120   1.204       .  T
C121        C189   1.476   1_545  S
C121        C122   1.205       .  T
C122        C123   1.410       .  S
C123        C124   1.205       .  T
C125        C126   1.348       .  D
C125        H127   1.089       .  S
C126        H128   1.086       .  S
C129        C130   1.355       .  D
C129        H131   1.089       .  S
C130        H132   1.086       .  S
C133        C134   1.338       .  D
C133        H135   1.087       .  S
C134        H136   1.089       .  S
C137        C138   1.354       .  D
C137        H139   1.085       .  S
C138        H140   1.090       .  S
C141        C142   1.356       .  D
C141        H143   1.085       .  S
C142        H144   1.089       .  S
C145        C146   1.348       .  D
C145        H147   1.086       .  S
C146        H148   1.088       .  S
C149        C150   1.348       .  D
C149        H151   1.089       .  S
C150        H152   1.086       .  S
C153        C154   1.350       .  D
C153        H155   1.085       .  S
C154        H156   1.089       .  S
C157        C158   1.353       .  D
C157        H479   1.085       .  S
C158        H160   1.089       .  S
H159        C477   1.085       .  S
O161        C171   1.267       .  A
O161        V489   1.914   1_455  S
O162        C172   1.265   1_545  A
O162        V169   1.905   1_556  S
O163        C173   1.262       .  A
O163        V169   1.895   1_565  S
O164        C174   1.263   1_554  A
O165        C174   1.266       .  A
O166        C173   1.265   1_556  A
O166        V170   1.905       .  S
O167        C172   1.262       .  A
O167        V170   1.894       .  S
O168        C171   1.262   1_566  A
O168        V490   1.888       .  S
V169        O481   1.915       .  S
V169        V170   2.087   1_544  T
V170        O488   1.889       .  S
C171        C313   1.478       .  S
C172        C310   1.469       .  S
C173        C305   1.469       .  S
C174        C317   1.476       .  S
O175        C185   1.266       .  A
O175        V183   1.913       .  S
O176        C186   1.263       .  A
O176        V183   1.897       .  S
O177        C187   1.263       .  A
O177        V183   1.898       .  S
O178        C188   1.265       .  A
O178        V183   1.897       .  S
O179        C188   1.265       .  A
O179        V184   1.908       .  S
O180        C187   1.264       .  A
O180        V184   1.900       .  S
O181        C186   1.263       .  A
O181        V184   1.895       .  S
O182        C185   1.264       .  A
O182        V184   1.893       .  S
V183        V184   2.085       .  T
C185        C301   1.482       .  S
C186        C290   1.463       .  S
C187        C293   1.466       .  S
C188        C297   1.478       .  S
C189        C277   1.471       .  S
C189        C285   1.517       .  S
C189        C314   1.522       .  S
C190        C269   1.474       .  S
C190        C284   1.469       .  S
C190        C266   1.521       .  S
C190        C273   1.515       .  S
C191        C261   1.465       .  S
C191        C280   1.478       .  S
C191        C298   1.523       .  S
C191        C309   1.520       .  S
C192        C264   1.474       .  S
C192        C272   1.470       .  S
C192        C257   1.518       .  S
C192        C294   1.518       .  S
O193        C203   1.268   1_455  A
O193        V201   1.916       .  S
O194        C204   1.264       .  A
O194        V201   1.901       .  S
O195        C205   1.262       .  A
O195        V201   1.896       .  S
O196        C206   1.265       .  A
O196        V201   1.897       .  S
O197        C206   1.267       .  A
O197        V202   1.912       .  S
O198        C205   1.265       .  A
O198        V202   1.904       .  S
O199        C204   1.261       .  A
O199        V202   1.890       .  S
O200        C203   1.263       .  A
O200        V202   1.889   1_655  S
V201        V202   2.085       .  T
C203        C578   1.482       .  S
C204        C274   1.463       .  S
C205        C249   1.468       .  S
O207        C217   1.267       .  A
O207        V215   1.913       .  S
O208        C218   1.265       .  A
O208        V215   1.903       .  S
O209        C219   1.262       .  A
O209        V215   1.892       .  S
O210        C220   1.262       .  A
O210        V215   1.888       .  S
O211        C220   1.267       .  A
O211        V216   1.914       .  S
O212        C219   1.265       .  A
O212        V216   1.903       .  S
O213        C218   1.262       .  A
O213        V216   1.893       .  S
O214        C217   1.263       .  A
O214        V216   1.889       .  S
V215        V216   2.087       .  T
C217        C245   1.478       .  S
C218        C242   1.467       .  S
C219        C286   1.466       .  S
C220        C265   1.478       .  S
C221        C233   1.470       .  S
C221        C240   1.475       .  S
C221        C250   1.519       .  S
C221        C302   1.521       .  S
C222        C229   1.469       .  S
C222        C556   1.477       .  S
C222        C289   1.515       .  S
C222        C318   1.519       .  S
C223        C225   1.477       .  S
C223        C237   1.470       .  S
C223        C241   1.517       .  S
C223        C254   1.521       .  S
C224        C228   1.470       .  S
C224        C232   1.476       .  S
C224        C246   1.522       .  S
C224        C306   1.519       .  S
C225        C226   1.206       .  T
C226        C547   1.411   1_455  S
C227        C228   1.206       .  T
C227        C546   1.411       .  S
C229        C230   1.205   1_556  T
C230        C231   1.409       .  S
C231        C232   1.205       .  T
C233        C234   1.204       .  T
C234        C235   1.407       .  S
C235        C236   1.204       .  T
C236        C542   1.475   1_455  S
C237        C238   1.206       .  T
C238        C239   1.411       .  S
C239        C240   1.206       .  T
C241        C242   1.349       .  D
C241        H243   1.089       .  S
C242        H244   1.086       .  S
C245        C246   1.352       .  D
C245        H247   1.085       .  S
C246        H248   1.089       .  S
C249        C250   1.351       .  D
C249        H251   1.086       .  S
C250        H252   1.088       .  S
C253        C254   1.351       .  D
C253        H255   1.085       .  S
C254        H256   1.089       .  S
C257        C258   1.347       .  D
C257        H259   1.089       .  S
C258        C523   1.479       .  S
C258        H260   1.086       .  S
C261        C262   1.203       .  T
C263        C264   1.205       .  T
C265        C266   1.352       .  D
C265        H267   1.085       .  S
C266        H268   1.089       .  S
C269        C270   1.204       .  T
C270        C271   1.408       .  S
C271        C272   1.204       .  T
C273        C274   1.349       .  D
C273        H275   1.088       .  S
C274        H276   1.086       .  S
C277        C278   1.207   1_554  T
C278        C279   1.412       .  S
C279        C280   1.207       .  T
C281        C282   1.205       .  T
C282        C283   1.409       .  S
C283        C284   1.205       .  T
C285        C286   1.349       .  D
C285        H287   1.088       .  S
C286        H288   1.086       .  S
C289        C290   1.347       .  D
C289        H291   1.089       .  S
C290        H292   1.086       .  S
C293        C294   1.350       .  D
C293        H295   1.086       .  S
C294        H296   1.088       .  S
C297        C298   1.350       .  D
C297        H299   1.085       .  S
C298        H300   1.089       .  S
C301        C302   1.347       .  D
C301        H303   1.086       .  S
C302        H304   1.089       .  S
C305        C306   1.350       .  D
C305        H307   1.086       .  S
C306        H308   1.088       .  S
C309        C310   1.352       .  D
C309        H311   1.088       .  S
C310        H312   1.086       .  S
C313        C314   1.352   1_545  D
C313        H315   1.085       .  S
C314        H316   1.089       .  S
C317        C318   1.350       .  D
C317        H639   1.085       .  S
C318        H320   1.089       .  S
H319        C637   1.085   1_455  S
O321        C331   1.266       .  A
O322        C332   1.264   1_554  A
O322        V329   1.902       .  S
O323        C333   1.262       .  A
O323        V329   1.893       .  S
O324        C334   1.263       .  A
O324        V489   1.895   1_556  S
O325        C334   1.268   1_455  A
O325        V490   1.917   1_545  S
O326        C333   1.263   1_455  A
O326        V330   1.900   1_554  S
O327        C332   1.262       .  A
O327        V330   1.893   1_655  S
O328        C331   1.263       .  A
V329        O484   1.889       .  S
V329        V330   2.088   1_654  T
V330        O485   1.909       .  S
C331        C473   1.476       .  S
C332        C470   1.467       .  S
C333        C465   1.465       .  S
C334        C477   1.484   1_655  S
O335        C345   1.271       .  A
O335        V343   1.925       .  S
O336        C346   1.271       .  A
O336        V343   1.922       .  S
O337        C347   1.255       .  A
O337        V343   1.876       .  S
O338        C348   1.258       .  A
O338        V343   1.871       .  S
O339        C348   1.270       .  A
O339        V344   1.925       .  S
O340        C347   1.270       .  A
O340        V344   1.914       .  S
O341        C346   1.257       .  A
O341        V344   1.876       .  S
O342        C345   1.260       .  A
O342        V344   1.880       .  S
V343        V344   2.087       .  T
C345        C461   1.484       .  S
C346        C450   1.474       .  S
C347        C453   1.466       .  S
C348        C457   1.479       .  S
C349        C437   1.467       .  S
C349        C601   1.475       .  S
C349        C445   1.516       .  S
C349        C474   1.520       .  S
C350        C429   1.477       .  S
C350        C444   1.468       .  S
C350        C426   1.522       .  S
C350        C433   1.518       .  S
C351        C421   1.471       .  S
C351        C440   1.472       .  S
C351        C458   1.516       .  S
C351        C469   1.516       .  S
C352        C424   1.467       .  S
C352        C432   1.472       .  S
C352        C417   1.525       .  S
C352        C454   1.517       .  S
O353        C363   1.267       .  A
O353        V361   1.915       .  S
O354        C364   1.264       .  A
O354        V361   1.903       .  S
O355        C365   1.262       .  A
O355        V361   1.895       .  S
O356        C366   1.262       .  A
O356        V361   1.890   1_565  S
O357        C366   1.267   1_545  A
O357        V362   1.913       .  S
O358        C365   1.264       .  A
O358        V362   1.903       .  S
O359        C364   1.262       .  A
O359        V362   1.894       .  S
O360        C363   1.263       .  A
O360        V362   1.893       .  S
V361        V362   2.087       .  T
C364        C434   1.467       .  S
C365        C409   1.468       .  S
C366        C573   1.478       .  S
O367        C377   1.266       .  A
O367        V375   1.911       .  S
O368        C378   1.263       .  A
O368        V375   1.899       .  S
O369        C379   1.263       .  A
O369        V375   1.894       .  S
O370        C380   1.263       .  A
O370        V375   1.891       .  S
O371        C380   1.267       .  A
O371        V376   1.913       .  S
O372        C379   1.264       .  A
O372        V376   1.902       .  S
O373        C378   1.263       .  A
O373        V376   1.895       .  S
O374        C377   1.263       .  A
O374        V376   1.892       .  S
V375        V376   2.088       .  T
C377        C405   1.478       .  S
C378        C402   1.465       .  S
C379        C446   1.466       .  S
C380        C425   1.479       .  S
C381        C393   1.470       .  S
C381        C400   1.473       .  S
C381        C410   1.519       .  S
C381        C462   1.523       .  S
C382        C389   1.473       .  S
C382        C449   1.518       .  S
C382        C478   1.528       .  S
C383        C385   1.477       .  S
C383        C397   1.468       .  S
C383        C401   1.517       .  S
C383        C414   1.522       .  S
C384        C388   1.472       .  S
C384        C392   1.480       .  S
C384        C406   1.521       .  S
C384        C466   1.516       .  S
C385        C386   1.206       .  T
C387        C388   1.207       .  T
C389        C390   1.208   1_556  T
C390        C391   1.414       .  S
C391        C392   1.208       .  T
C393        C394   1.205       .  T
C394        C395   1.409       .  S
C395        C396   1.205       .  T
C397        C398   1.204       .  T
C398        C399   1.408       .  S
C399        C400   1.204       .  T
C401        C402   1.349       .  D
C401        H403   1.088       .  S
C402        H404   1.086       .  S
C405        C406   1.350       .  D
C405        H407   1.085       .  S
C406        H408   1.089       .  S
C409        C410   1.351       .  D
C409        H411   1.086       .  S
C410        H412   1.088       .  S
C413        C526   1.479       .  S
C413        C414   1.351       .  D
C413        H415   1.085       .  S
C414        H416   1.089       .  S
C417        C418   1.351       .  D
C417        H419   1.088       .  S
C418        H420   1.085       .  S
C421        C422   1.206       .  T
C422        C583   1.411       .  S
C423        C424   1.202       .  T
C423        C582   1.405   1_545  S
C425        C426   1.351       .  D
C425        H427   1.085       .  S
C426        H428   1.089       .  S
C429        C430   1.206       .  T
C430        C431   1.410       .  S
C431        C432   1.206       .  T
C433        C434   1.350       .  D
C433        H435   1.088       .  S
C434        H436   1.086       .  S
C437        C438   1.204   1_554  T
C438        C439   1.407       .  S
C439        C440   1.204       .  T
C441        C509   1.475   1_545  S
C441        C442   1.205       .  T
C442        C443   1.409       .  S
C443        C444   1.205       .  T
C445        C446   1.348       .  D
C445        H447   1.089       .  S
C446        H448   1.086       .  S
C449        C450   1.356       .  D
C449        H451   1.088       .  S
C450        H452   1.086       .  S
C453        C454   1.337       .  D
C453        H455   1.087       .  S
C454        H456   1.089       .  S
C457        C458   1.354       .  D
C457        H459   1.085       .  S
C458        H460   1.089       .  S
C461        C462   1.357       .  D
C461        H463   1.085       .  S
C462        H464   1.089       .  S
C465        C466   1.348       .  D
C465        H467   1.086   1_655  S
C466        H468   1.089       .  S
C469        C470   1.348       .  D
C469        H471   1.089       .  S
C470        H472   1.086       .  S
C473        C474   1.350       .  D
C473        H475   1.085       .  S
C474        H476   1.089       .  S
C477        C478   1.353   1_455  D
C478        H480   1.089       .  S
O481        C491   1.267       .  A
O482        C492   1.265   1_545  A
O482        V489   1.904   1_556  S
O483        C493   1.262       .  A
O483        V489   1.896   1_565  S
O484        C494   1.263   1_554  A
O485        C494   1.266   1_455  A
O486        C493   1.265   1_456  A
O486        V490   1.905       .  S
O487        C492   1.262       .  A
O487        V490   1.892   1_655  S
O488        C491   1.262   1_566  A
V489        V490   2.087   1_644  T
C491        C633   1.479       .  S
C492        C630   1.467       .  S
C493        C625   1.470       .  S
C494        C637   1.475       .  S
O495        C505   1.266       .  A
O495        V503   1.911       .  S
O496        C506   1.263       .  A
O496        V503   1.897       .  S
O497        C507   1.263       .  A
O497        V503   1.897       .  S
O498        C508   1.263       .  A
O498        V503   1.889       .  S
O499        C508   1.266       .  A
O499        V504   1.910       .  S
O500        C507   1.264       .  A
O500        V504   1.901       .  S
O501        C506   1.262       .  A
O501        V504   1.893       .  S
O502        C505   1.264       .  A
O502        V504   1.892       .  S
V503        V504   2.088       .  T
C505        C621   1.479       .  S
C506        C610   1.462       .  S
C507        C613   1.467       .  S
C508        C617   1.476       .  S
C509        C597   1.469       .  S
C509        C605   1.517       .  S
C509        C634   1.522       .  S
C510        C589   1.475       .  S
C510        C604   1.469       .  S
C510        C586   1.522       .  S
C510        C593   1.517       .  S
C511        C581   1.464       .  S
C511        C600   1.475       .  S
C511        C618   1.519       .  S
C511        C629   1.517       .  S
C512        C584   1.474       .  S
C512        C592   1.471       .  S
C512        C577   1.520       .  S
C512        C614   1.518       .  S
O513        C523   1.266       .  A
O513        V521   1.912       .  S
O514        C524   1.264       .  A
O514        V521   1.901       .  S
O515        C525   1.262       .  A
O515        V521   1.891       .  S
O516        C526   1.264       .  A
O516        V521   1.893       .  S
O517        C526   1.267       .  A
O517        V522   1.912       .  S
O518        C525   1.265       .  A
O518        V522   1.904       .  S
O519        C524   1.262       .  A
O519        V522   1.893       .  S
O520        C523   1.263       .  A
O520        V522   1.888       .  S
V521        V522   2.085       .  T
C524        C594   1.465       .  S
C525        C569   1.467       .  S
O527        C537   1.267       .  A
O527        V535   1.914       .  S
O528        C538   1.265       .  A
O528        V535   1.903       .  S
O529        C539   1.262       .  A
O529        V535   1.893       .  S
O530        C540   1.263       .  A
O530        V535   1.890       .  S
O531        C540   1.267       .  A
O531        V536   1.914       .  S
O532        C539   1.264       .  A
O532        V536   1.903       .  S
O533        C538   1.262       .  A
O533        V536   1.892       .  S
O534        C537   1.262       .  A
O534        V536   1.890       .  S
V535        V536   2.088       .  T
C537        C565   1.479       .  S
C538        C562   1.467       .  S
C539        C606   1.466       .  S
C540        C585   1.479       .  S
C541        C553   1.470       .  S
C541        C560   1.479       .  S
C541        C570   1.515       .  S
C541        C622   1.521       .  S
C542        C549   1.469       .  S
C542        C609   1.514       .  S
C542        C638   1.518       .  S
C543        C545   1.477       .  S
C543        C557   1.472       .  S
C543        C561   1.516       .  S
C543        C574   1.522       .  S
C544        C548   1.470       .  S
C544        C552   1.476       .  S
C544        C566   1.523       .  S
C544        C626   1.520       .  S
C545        C546   1.206       .  T
C547        C548   1.206       .  T
C549        C550   1.205   1_556  T
C550        C551   1.409       .  S
C551        C552   1.205       .  T
C553        C554   1.206       .  T
C554        C555   1.411       .  S
C555        C556   1.206       .  T
C557        C558   1.207       .  T
C558        C559   1.413       .  S
C559        C560   1.207       .  T
C561        C562   1.349       .  D
C561        H563   1.088       .  S
C562        H564   1.086       .  S
C565        C566   1.353       .  D
C565        H567   1.085       .  S
C566        H568   1.089       .  S
C569        C570   1.348       .  D
C569        H571   1.086       .  S
C570        H572   1.089       .  S
C573        C574   1.352       .  D
C573        H575   1.085       .  S
C574        H576   1.089       .  S
C577        C578   1.349       .  D
C577        H579   1.089       .  S
C578        H580   1.086       .  S
C581        C582   1.202       .  T
C583        C584   1.206       .  T
C585        C586   1.352       .  D
C585        H587   1.085       .  S
C586        H588   1.089       .  S
C589        C590   1.205       .  T
C590        C591   1.409       .  S
C591        C592   1.205       .  T
C593        C594   1.350       .  D
C593        H595   1.088       .  S
C594        H596   1.086       .  S
C597        C598   1.205   1_554  T
C598        C599   1.409       .  S
C599        C600   1.205       .  T
C601        C602   1.205       .  T
C602        C603   1.409       .  S
C603        C604   1.205       .  T
C605        C606   1.350       .  D
C605        H607   1.088       .  S
C606        H608   1.086       .  S
C609        C610   1.347       .  D
C609        H611   1.089       .  S
C610        H612   1.086       .  S
C613        C614   1.351       .  D
C613        H615   1.086       .  S
C614        H616   1.088       .  S
C617        C618   1.350       .  D
C617        H619   1.085       .  S
C618        H620   1.089       .  S
C621        C622   1.349       .  D
C621        H623   1.085       .  S
C622        H624   1.089       .  S
C625        C626   1.350       .  D
C625        H627   1.086   1_655  S
C626        H628   1.088       .  S
C629        C630   1.350       .  D
C629        H631   1.088       .  S
C630        H632   1.086   1_565  S
C633        C634   1.352   1_545  D
C633        H635   1.085       .  S
C634        H636   1.089       .  S
C637        C638   1.350       .  D
C638        H640   1.089       .  S
