geometry optimzed in LAMMPS
_audit_creation_date              2020-11-30 
_audit_creation_method            'lammps2cif' 
_symmetry_space_group_name_H-M    'P1' 
_symmetry_Int_Tables_number       1 
_symmetry_cell_setting            triclinic 
loop_ 
_symmetry_equiv_pos_as_xyz 
  x,y,z 
_cell_length_a                    43.25930693 
_cell_length_b                    42.68011964959268 
_cell_length_c                    33.87292595973432 
_cell_angle_alpha                 91.35023218015702 
_cell_angle_beta                  89.80513191019381 
_cell_angle_gamma                 121.59067670570623 
loop_ 
_atom_site_label 
_atom_site_type_symbol 
_atom_site_fract_x 
_atom_site_fract_y 
_atom_site_fract_z 
_atom_site_charge 
C1          C  0.34172425  0.17734504  0.44587293     0.29900
C2          C  0.34226275  0.17774091  0.02583559     0.29900
C3          C  0.35237926  0.15189148  0.46446428    -0.06300
C4          C  0.36638129  0.21424580  0.46632605    -0.07100
C5          C  0.30475030  0.16397609  0.46517065    -0.07000
C6          C  0.35311656  0.15234013  0.00558778    -0.06300
C7          C  0.36722860  0.21466849  0.00676783    -0.07100
C8          C  0.30482438  0.16377644  0.00642825    -0.07000
C9          C  0.36521443  0.12972369  0.01667840    -0.32400
N10         N  0.37240953  0.11663944  0.48342871     0.14100
C11         C  0.36366715  0.12889335  0.45143887    -0.32400
H12         H  0.36703710  0.12274986  0.42115243     0.16100
C13         C  0.39187603  0.25026977  0.01904467    -0.31400
N14         N  0.40559310  0.27118124  0.98649716     0.12800
C15         C  0.38953778  0.24929599  0.45421183    -0.31300
C16         C  0.26927564  0.14001038  0.01762271    -0.31600
N17         N  0.24804041  0.12742025  0.48466471     0.13400
H18         H  0.25961253  0.13157274  0.04728591     0.16000
C19         C  0.26941813  0.14060629  0.45265514    -0.31600
H20         H  0.25982702  0.13263299  0.42248097     0.16000
H21         H  0.39342629  0.25828996  0.42402950     0.16000
H22         H  0.37001505  0.12418425  0.04629093     0.16100
H23         H  0.39905236  0.26022554  0.04930674     0.16000
C24         C  0.34524281  0.18046240  0.19626785     0.29900
C25         C  0.34155913  0.17986718  0.27588260     0.29900
C26         C  0.35089092  0.15150510  0.21591441    -0.06300
C27         C  0.37212812  0.21653546  0.21771489    -0.07100
C28         C  0.30824694  0.17093038  0.21345320    -0.07000
C29         C  0.34953099  0.15158586  0.25690722    -0.06300
C30         C  0.37018503  0.21634598  0.25818273    -0.07100
C31         C  0.30616983  0.17017289  0.25450027    -0.07000
C32         C  0.35834691  0.12658331  0.26952916    -0.32400
N33         N  0.36510500  0.11159647  0.23735787     0.14100
C34         C  0.35960189  0.12578936  0.20452371    -0.32400
H35         H  0.36394226  0.11941010  0.17473985     0.16100
C36         C  0.39280773  0.25212934  0.27185892    -0.31400
N37         N  0.40896350  0.27370765  0.24033004     0.12800
C38         C  0.39617506  0.25223794  0.20703352    -0.31300
C39         C  0.26982370  0.14741399  0.26351649    -0.31600
N40         N  0.24989246  0.13702975  0.22971551     0.13400
H41         H  0.25881153  0.13760131  0.29246781     0.16000
C42         C  0.27314257  0.14940155  0.19912431    -0.31600
H43         H  0.26512118  0.14075769  0.16867008     0.16000
H44         H  0.40211255  0.26231192  0.17724712     0.16000
H45         H  0.36220761  0.12155286  0.29974177     0.16100
H46         H  0.39573610  0.26205663  0.30214307     0.16000
O47         O  0.07317707  0.01399393  0.45831998    -0.80300
O48         O  0.47130340  0.05707639  0.42741255    -0.80300
O49         O  0.05344269  0.09489803  0.39372664    -0.80300
O50         O  0.46675198  0.48744417  0.00937903    -0.80200
O51         O  0.00252405  0.07229475  0.35982772    -0.80400
O52         O  0.02487796  0.51692686  0.00713738    -0.80300
O53         O  0.43488644  0.01001271  0.46083151    -0.80300
O54         O  0.08422995  0.06725331  0.43952687    -0.80300
C55         C  0.09493080  0.04835251  0.45595557     1.05200
C56         C  0.44669891  0.04259363  0.45231708     1.09300
C57         C  0.03307291  0.09950397  0.37118684     1.09400
C58         C  0.49671546  0.50563546  0.02755057     1.09300
O59         O  0.51247380  0.44974307  0.48370206    -0.80300
O60         O  0.48041916  0.99607570  0.34282393    -0.80400
O61         O  0.06566631  0.50944997  0.38096052    -0.80300
O62         O  0.43022131  0.46414226  0.39578224    -0.80300
O63         O  0.42943436  0.51012071  0.36727043    -0.80300
O64         O  0.01609027  0.46371130  0.40502960    -0.80300
O65         O  0.46238443  0.43484381  0.44964399    -0.80200
O66         O  0.03597773  0.03983597  0.33309438    -0.80300
Co67       Co  0.01890012  0.49040518  0.45516347     1.51500
Co68       Co  0.47553988  0.02446265  0.38863479     1.51700
Co69       Co  0.05609262  0.05042128  0.38973730     1.51600
Co70       Co  0.45592427  0.47953868  0.45012441     1.51500
O71         O  0.00977589  0.02316589  0.42517521    -1.42200
C72         C  0.48087926  0.42578864  0.47149403     1.09300
C73         C  0.00570213  0.01458644  0.31880126     1.09400
C74         C  0.04465437  0.47525365  0.38549227     1.09400
C75         C  0.41240699  0.47677912  0.37828509     1.09300
O76         O  0.07668592  0.01104078  0.22658404    -0.80300
O77         O  0.47632584  0.06019128  0.19911584    -0.80300
O78         O  0.06040667  0.06578395  0.11308026    -0.80300
O79         O  0.47014053  0.48304810  0.25873869    -0.80200
O80         O  0.03762896  0.08647221  0.15604623    -0.80400
O81         O  0.02694526  0.52794181  0.25145228    -0.80300
O82         O  0.43083803  0.00536606  0.21358027    -0.80300
O83         O  0.07992314  0.04904528  0.18157242    -0.80300
C84         C  0.09551193  0.04081758  0.20848628     1.09400
C85         C  0.44536444  0.04007290  0.21410821     1.09300
C86         C  0.06090290  0.09262960  0.13022269     1.09400
C87         C  0.50041545  0.50847889  0.27416994     1.09300
O88         O  0.50601260  0.45456155  0.23110681    -0.80300
O89         O  0.49467236  0.03622320  0.08847800    -0.80400
O90         O  0.07492950  0.51043721  0.11484052    -0.80300
O91         O  0.42465794  0.45790003  0.14937620    -0.80300
O92         O  0.43346065  0.51203096  0.13531862    -0.80300
O93         O  0.04023184  0.47169301  0.16064992    -0.80300
O94         O  0.46024485  0.43298679  0.19072463    -0.80200
O95         O  0.00626077  0.99191510  0.09346887    -0.80300
Co96       Co  0.03298835  0.50320236  0.20391082     1.51500
Co97       Co  0.48679166  0.04673372  0.14669669     1.51700
Co98       Co  0.03909734  0.01706995  0.13982115     1.51600
Co99       Co  0.44977786  0.47199873  0.20108266     1.51500
O100        O  0.99649311  0.00972129  0.17309510    -1.42200
C101        C  0.47765031  0.42736671  0.21616913     1.09300
C102        C  0.99846328  0.01101028  0.07211766     1.09400
C103        C  0.06330366  0.48039160  0.13235396     1.09400
C104        C  0.41364149  0.47713040  0.13419532     1.09300
C105        C  0.16403850  0.35010778  0.31859164     0.29900
C106        C  0.16227540  0.34555590  0.39847331     0.29900
C107        C  0.14582240  0.36854467  0.34029520    -0.06300
C108        C  0.14203748  0.31098537  0.33473586    -0.07100
C109        C  0.20084662  0.36670636  0.33949377    -0.07000
C110        C  0.14667317  0.36767353  0.38129963    -0.06300
C111        C  0.14137782  0.30896371  0.37543112    -0.07100
C112        C  0.20019051  0.36485707  0.38012424    -0.07000
C113        C  0.13036353  0.38577049  0.39564885    -0.32400
N114        N  0.11569563  0.39405787  0.36508175     0.14100
C115        C  0.12495555  0.38331173  0.33105359    -0.32400
H116        H  0.11596330  0.38465675  0.30176939     0.16100
C117        C  0.11822152  0.27283340  0.38482888    -0.31400
N118        N  0.10468205  0.25278606  0.35081746     0.12800
C119        C  0.11899552  0.27566531  0.31991469    -0.31300
C120        C  0.23584740  0.38327325  0.39297378    -0.31600
N121        N  0.25767412  0.39480773  0.36102448     0.13400
H122        H  0.24557869  0.38876394  0.42323331     0.16000
C123        C  0.23659575  0.38496203  0.32809005    -0.31600
H124        H  0.24653204  0.39060571  0.29814986     0.16000
H125        H  0.11258170  0.26720081  0.28916958     0.16000
H126        H  0.12993963  0.39265058  0.42638907     0.16100
H127        H  0.11163250  0.26182595  0.41420518     0.16000
C128        C  0.16553201  0.33913910  0.06830335     0.29900
C129        C  0.16887774  0.34389147  0.14845795     0.29900
C130        C  0.14380508  0.35469070  0.08818882    -0.06300
C131        C  0.15197371  0.30282324  0.08930636    -0.07100
C132        C  0.20360305  0.36491591  0.08629891    -0.07000
C133        C  0.14483976  0.35619533  0.12924431    -0.06300
C134        C  0.15267296  0.30491835  0.13009757    -0.07100
C135        C  0.20507106  0.36663911  0.12721453    -0.07000
C136        C  0.12659814  0.37322487  0.14151635    -0.32400
N137        N  0.11636539  0.38381088  0.10926036     0.14100
C138        C  0.12730064  0.37346893  0.07659638    -0.32400
H139        H  0.12540810  0.38126157  0.04695040     0.16100
C140        C  0.13782739  0.26944377  0.14280662    -0.31400
N141        N  0.13183447  0.24658409  0.11121024     0.12800
C142        C  0.13948852  0.26677183  0.07814003    -0.31300
C143        C  0.24076282  0.38955450  0.13846556    -0.31600
N144        N  0.26101805  0.40208908  0.10545147     0.13400
H145        H  0.25143151  0.39591248  0.16837429     0.16000
C146        C  0.23875091  0.38769629  0.07336712    -0.31600
H147        H  0.24771243  0.39322379  0.04312929     0.16000
H148        H  0.13727522  0.25641897  0.04816804     0.16000
H149        H  0.12270474  0.37956772  0.17153479     0.16100
H150        H  0.13144041  0.26084611  0.17300888     0.16000
C151        C  0.17639282  0.32691449  0.25647184    -0.26500
C152        C  0.16902431  0.35232194  0.27456164    -0.14500
C153        C  0.17573609  0.38289201  0.25216940     0.36100
C154        C  0.17637748  0.37991740  0.21120635    -0.25900
C155        C  0.17333468  0.34862909  0.19269887    -0.15100
C156        C  0.18080635  0.32634482  0.21581647     0.37200
N157        N  0.19512720  0.30546904  0.19866954    -0.89400
H158        H  0.18015631  0.30839607  0.27428226     0.18300
H159        H  0.18093223  0.40292433  0.19387922     0.18300
N160        N  0.18669920  0.41843812  0.26911436    -0.88400
H161        H  0.19942536  0.29099942  0.22024677     0.35700
H162        H  0.22054338  0.32408925  0.18701321     0.40800
H163        H  0.19314973  0.42066395  0.29908943     0.40400
H164        H  0.16600311  0.42371481  0.26469868     0.35300
C165        C  0.13089360  0.32867738  0.50519215    -0.26500
C166        C  0.16237013  0.33420460  0.02402665    -0.14500
C167        C  0.18728876  0.33021216  0.50050402     0.36100
C168        C  0.18625687  0.33355259  0.45989509    -0.25900
C169        C  0.16055285  0.33968808  0.44228482    -0.15100
C170        C  0.12951207  0.33081116  0.46438163     0.37200
N171        N  0.09595708  0.32127989  0.44564416    -0.89400
H172        H  0.10705272  0.32215633  0.02191817     0.18300
H173        H  0.20483339  0.32972291  0.44203397     0.18300
N174        N  0.21182727  0.32009218  0.01574521    -0.88400
H175        H  0.08677512  0.33724148  0.45885178     0.35700
H176        H  0.07691285  0.29383156  0.45177716     0.40800
H177        H  0.20909297  0.31553092  0.04595141     0.40400
H178        H  0.23835140  0.34099847  0.51018164     0.35300
C179        C  0.10998175  0.15511605  0.14975022    -0.26500
C180        C  0.08677067  0.13104140  0.12005348    -0.14500
C181        C  0.08279722  0.14534002  0.08478246     0.36100
C182        C  0.09900103  0.18359251  0.08149640    -0.25900
C183        C  0.11981970  0.20790537  0.11277087    -0.15100
C184        C  0.12759722  0.19338659  0.14596171     0.37200
N185        N  0.15306470  0.21735962  0.17586152    -0.89400
H186        H  0.11330344  0.14394031  0.17669858     0.18300
H187        H  0.09358248  0.19399878  0.05526225     0.18300
N188        N  0.06042376  0.12100254  0.05333674    -0.88400
H189        H  0.17851801  0.23215256  0.16266846     0.35700
H190        H  0.15536127  0.20221736  0.19824540     0.40800
H191        H  0.07628254  0.12748129  0.02799034     0.40400
H192        H  0.03964806  0.12604471  0.04785282     0.35300
C193        C  0.35752837  0.47844580  0.12116000    -0.26500
C194        C  0.37551112  0.45887526  0.11949023    -0.14500
C195        C  0.35552533  0.42113956  0.10828080     0.36100
C196        C  0.31796050  0.40349671  0.10126048    -0.25900
C197        C  0.29991404  0.42264091  0.10531551    -0.15100
C198        C  0.31998537  0.46073547  0.11436312     0.37200
N199        N  0.30307216  0.48204922  0.11738451    -0.89400
H200        H  0.37238743  0.00743177  0.12953962     0.18300
H201        H  0.30223658  0.37424257  0.09434489     0.18300
N202        N  0.37329261  0.40070099  0.10495975    -0.88400
H203        H  0.30533697  0.99117474  0.14653391     0.35700
H204        H  0.27538985  0.46609965  0.11046055     0.40800
H205        H  0.39228205  0.41247144  0.08247000     0.40400
H206        H  0.35487526  0.37340990  0.09609997     0.35300
C207        C  0.11366347  0.46981917  0.11961856    -0.26500
C208        C  0.07611850  0.45542681  0.12111100    -0.14500
C209        C  0.05185971  0.41710878  0.11520026     0.36100
C210        C  0.06554576  0.39393702  0.10991110    -0.25900
C211        C  0.10298635  0.40824967  0.11033112    -0.15100
C212        C  0.12730317  0.44646320  0.11442460     0.37200
N213        N  0.16571209  0.46103250  0.11469377    -0.89400
H214        H  0.13234804  0.49913396  0.12420081     0.18300
H215        H  0.04694548  0.36452211  0.10630607     0.18300
N216        N  0.01334169  0.40113564  0.11357177    -0.88400
H217        H  0.18006171  0.48965197  0.11849870     0.35700
H218        H  0.17256815  0.45550559  0.08686063     0.40800
H219        H  0.00750041  0.41424753  0.09175034     0.40400
H220        H  0.00462138  0.40569611  0.14067567     0.35300
C221        C  0.09540652  0.19328062  0.32993890    -0.26500
C222        C  0.08217298  0.21345393  0.34865111    -0.14500
C223        C  0.04951097  0.19494076  0.36974983     0.36100
C224        C  0.03154401  0.15667580  0.37376021    -0.25900
C225        C  0.04640743  0.13693604  0.35779285    -0.15100
C226        C  0.07814956  0.15514737  0.33486646     0.37200
N227        N  0.09365735  0.13509188  0.31845881    -0.89400
H228        H  0.12065795  0.20777482  0.31391989     0.18300
H229        H  0.00736134  0.14281229  0.39161036     0.18300
N230        N  0.03531060  0.21524257  0.38821669    -0.88400
H231        H  0.11724327  0.15261660  0.30286822     0.35700
H232        H  0.07505820  0.11583564  0.29789030     0.40800
H233        H  0.03359513  0.21057998  0.41853675     0.40400
H234        H  0.00900086  0.20472629  0.37731148     0.35300
C235        C  0.31335003  0.39996645  0.38553074    -0.26500
C236        C  0.29653245  0.41371600  0.36239320    -0.14500
C237        C  0.31789021  0.44643857  0.34202769     0.36100
C238        C  0.35574046  0.46570094  0.34614610    -0.25900
C239        C  0.37284289  0.45283281  0.37051973    -0.15100
C240        C  0.35127100  0.41898922  0.38979896     0.37200
N241        N  0.36756510  0.40437843  0.41440572    -0.89400
H242        H  0.29662118  0.37449627  0.40083153     0.18300
H243        H  0.37167081  0.99124482  0.33080434     0.18300
N244        N  0.30106082  0.46094939  0.31849095    -0.88400
H245        H  0.34798947  0.37828594  0.42418077     0.35700
H246        H  0.37782467  0.42137036  0.43968136     0.40800
H247        H  0.31036257  0.46304571  0.28964957     0.40400
H248        H  0.30953461  0.98728213  0.32888265     0.35300
C249        C  0.05820345  0.42935654  0.40687124    -0.26500
C250        C  0.05736978  0.44992436  0.37590184    -0.14500
C251        C  0.07284994  0.44906860  0.33943590     0.36100
C252        C  0.09191408  0.43061014  0.33635768    -0.25900
C253        C  0.09405719  0.41103269  0.36823473    -0.15100
C254        C  0.07496100  0.40902881  0.40310762     0.37200
N255        N  0.07202916  0.38632986  0.43504444    -0.89400
H256        H  0.04675147  0.42996151  0.43510809     0.18300
H257        H  0.10536893  0.43202482  0.30888990     0.18300
N258        N  0.06934299  0.46602144  0.30503234    -0.88400
H259        H  0.04453863  0.36757292  0.44003028     0.35700
H260        H  0.08300584  0.40310549  0.46044692     0.40800
H261        H  0.05311314  0.47707661  0.31050551     0.40400
H262        H  0.05570503  0.44542695  0.28332097     0.35300
C263        C  0.36682965  0.05491702  0.23567884    -0.26500
C264        C  0.38524803  0.09340752  0.23776946    -0.14500
C265        C  0.42359867  0.11395543  0.23666721     0.36100
C266        C  0.44246801  0.09565387  0.23172732    -0.25900
C267        C  0.42426925  0.05711727  0.22755409    -0.15100
C268        C  0.38581058  0.03643482  0.23065623     0.37200
N269        N  0.36590283  0.99699676  0.22637934    -0.89400
H270        H  0.33745067  0.03936470  0.23661756     0.18300
H271        H  0.47177547  0.11204912  0.22966212     0.18300
N272        N  0.44432366  0.15349331  0.23951971    -0.88400
H273        H  0.33797752  0.98637927  0.22621611     0.35700
H274        H  0.37152766  0.98674433  0.25131156     0.40800
H275        H  0.42791685  0.16438017  0.24434172     0.40400
H276        H  0.45696963  0.16319218  0.21238790     0.35300
C277        C  0.41247378  0.33198623  0.25306277    -0.26500
C278        C  0.42958914  0.31324068  0.24086851    -0.14500
C279        C  0.46495105  0.33330205  0.22496266     0.36100
C280        C  0.48153860  0.37137518  0.21993479    -0.25900
C281        C  0.46309380  0.38946054  0.22917583    -0.15100
C282        C  0.42844018  0.36974125  0.24649677     0.37200
N283        N  0.40929742  0.38798159  0.25664523    -0.89400
H284        H  0.38542408  0.31647354  0.26518260     0.18300
H285        H  0.50820584  0.38650391  0.20683847     0.18300
N286        N  0.48425962  0.31581202  0.21260892    -0.88400
H287        H  0.38499994  0.36998168  0.27082566     0.35700
H288        H  0.40195888  0.39489268  0.23037296     0.40800
H289        H  0.46981964  0.28791085  0.21918017     0.40400
H290        H  0.50828441  0.32770273  0.22922174     0.35300
C291        C  0.19199201  0.08357795  0.25015649    -0.26500
C292        C  0.21100593  0.11423339  0.22633579    -0.14500
C293        C  0.19169111  0.12217242  0.19895452     0.36100
C294        C  0.15405620  0.09817533  0.19455929    -0.25900
C295        C  0.13488240  0.06652650  0.21737216    -0.15100
C296        C  0.15446650  0.05976550  0.24602631     0.37200
N297        N  0.13737965  0.02913835  0.27151478    -0.89400
H298        H  0.20659687  0.07750098  0.27151060     0.18300
H299        H  0.13981121  0.10414378  0.17264830     0.18300
N300        N  0.21038036  0.15472405  0.17584837    -0.88400
H301        H  0.12531807  0.00484971  0.25436042     0.35700
H302        H  0.11785129  0.03110673  0.28772610     0.40800
H303        H  0.22077553  0.17744313  0.19534643     0.40400
H304        H  0.19232304  0.15647543  0.15693023     0.35300
C305        C  0.37445505  0.06106314  0.48674330    -0.26500
C306        C  0.39252558  0.09892641  0.48194935    -0.14500
C307        C  0.42981889  0.11915162  0.47357648     0.36100
C308        C  0.44780366  0.10033515  0.46619491    -0.25900
C309        C  0.42918912  0.06188513  0.46809791    -0.15100
C310        C  0.39251291  0.04214061  0.48055508     0.37200
N311        N  0.37314269  0.00289624  0.48489556    -0.89400
H312        H  0.34592310  0.04626214  0.49415434     0.18300
H313        H  0.47610286  0.11559063  0.45782124     0.18300
N314        N  0.44908428  0.15857784  0.97309754    -0.88400
H315        H  0.34611532  0.49282293  0.49231499     0.35700
H316        H  0.38465074  0.49788655  0.50960697     0.40800
H317        H  0.43925879  0.16589915  0.94920331     0.40400
H318        H  0.47664736  0.16936797  0.46731666     0.35300
C319        C  0.42539970  0.33211072  0.01492943    -0.26500
C320        C  0.42930239  0.31039804  0.48614983    -0.14500
C321        C  0.45397794  0.32759327  0.45501143     0.36100
C322        C  0.47136170  0.36574916  0.45144590    -0.25900
C323        C  0.46607429  0.38706284  0.47939869    -0.15100
C324        C  0.44364880  0.37028625  0.01207477     0.37200
N325        N  0.43721535  0.39063486  0.04191286    -0.89400
H326        H  0.40655323  0.31920084  0.03888002     0.18300
H327        H  0.48800136  0.37864687  0.42598548     0.18300
N328        N  0.46077425  0.30622814  0.42683582    -0.88400
H329        H  0.41020459  0.38321220  0.03875446     0.35700
H330        H  0.45322023  0.41900543  0.03805445     0.40800
H331        H  0.47277387  0.29421435  0.44206549     0.40400
H332        H  0.47949654  0.32315255  0.40576019     0.35300
C333        C  0.15346367  0.10591001  0.47024104    -0.26500
C334        C  0.13341455  0.06720149  0.46963882    -0.14500
C335        C  0.15162583  0.04843797  0.47783024     0.36100
C336        C  0.18951944  0.06897626  0.48452466    -0.25900
C337        C  0.20922852  0.10748262  0.48324218    -0.15100
C338        C  0.19092359  0.12624242  0.97638979     0.37200
N339        N  0.20953799  0.16566647  0.97452910    -0.89400
H340        H  0.14018597  0.12104799  0.96441150     0.18300
H341        H  0.20403122  0.05501780  0.48940931     0.18300
N342        N  0.13219488  0.00891222  0.47763665    -0.88400
H343        H  0.20762703  0.17215975  0.94539990     0.35700
H344        H  0.23708808  0.17823590  0.98132105     0.40800
H345        H  0.11463030  0.00029008  0.50167550     0.40400
H346        H  0.14998931  0.99970085  0.48239850     0.35300
C347        C  0.37193803  0.18409691  0.33915568    -0.26500
C348        C  0.34260838  0.18258984  0.31992643    -0.14500
C349        C  0.31983044  0.19063380  0.34204484     0.36100
C350        C  0.31962687  0.18783663  0.38281416    -0.25900
C351        C  0.34418107  0.18097833  0.40188341    -0.15100
C352        C  0.37426401  0.18545016  0.37996007     0.37200
N353        N  0.40854748  0.19479547  0.39706565    -0.89400
H354        H  0.39409590  0.18585563  0.32225344     0.18300
H355        H  0.30160800  0.19322517  0.39977682     0.18300
N356        N  0.29936845  0.20429945  0.32379161    -0.88400
H357        H  0.41329463  0.17368247  0.39018809     0.35700
H358        H  0.40980743  0.19888788  0.42752388     0.40800
H359        H  0.31792124  0.22962639  0.31158953     0.40400
H360        H  0.28462526  0.20940510  0.34474375     0.35300
C361        C  0.37372585  0.18173918  0.08935846    -0.26500
C362        C  0.34483690  0.18129389  0.06996749    -0.14500
C363        C  0.32447985  0.19270992  0.09160532     0.36100
C364        C  0.32627302  0.19360288  0.13244770    -0.25900
C365        C  0.34861897  0.18412076  0.15220957    -0.15100
C366        C  0.37653213  0.18394106  0.13036067     0.37200
N367        N  0.40932952  0.18933284  0.14777463    -0.89400
H368        H  0.39526496  0.18212945  0.07265307     0.18300
H369        H  0.31033973  0.20236469  0.14855996     0.18300
N370        N  0.30355705  0.20529564  0.07254570    -0.88400
H371        H  0.41076901  0.16601395  0.14177960     0.35700
H372        H  0.41077105  0.19395289  0.17821687     0.40800
H373        H  0.31402379  0.23270650  0.08131695     0.40400
H374        H  0.27686811  0.18988240  0.08265983     0.35300
C375        C  0.34172799  0.17731888  0.94587651     0.29900
C376        C  0.34220465  0.17768407  0.52583175     0.29900
C377        C  0.35240097  0.15189084  0.96449280    -0.06300
C378        C  0.36638631  0.21424575  0.96628533    -0.07100
C379        C  0.30476357  0.16395420  0.96519579    -0.07000
C380        C  0.35306025  0.15229622  0.50555980    -0.06300
C381        C  0.36719656  0.21463095  0.50680945    -0.07100
C382        C  0.30478222  0.16375120  0.50640438    -0.07000
C383        C  0.36518720  0.12970274  0.51663707    -0.32400
N384        N  0.37236608  0.11658931  0.98347500     0.14100
C385        C  0.36362914  0.12884101  0.95147985    -0.32400
H386        H  0.36696021  0.12265780  0.92119454     0.16100
C387        C  0.39184592  0.25022193  0.51912406    -0.31400
N388        N  0.40558873  0.27115751  0.48659623     0.12800
C389        C  0.38952742  0.24929057  0.95413360    -0.31300
C390        C  0.26923888  0.13989029  0.51755378    -0.31600
N391        N  0.24805223  0.12753893  0.98475019     0.13400
H392        H  0.25956464  0.13138906  0.54720057     0.16000
C393        C  0.26941141  0.14064009  0.95271480    -0.31600
H394        H  0.25979064  0.13264333  0.92255231     0.16000
H395        H  0.39339952  0.25825845  0.92394181     0.16000
H396        H  0.36997543  0.12414469  0.54624631     0.16100
H397        H  0.39900198  0.26015579  0.54939516     0.16000
C398        C  0.34520269  0.18032876  0.69627819     0.29900
C399        C  0.34158982  0.17981382  0.77589644     0.29900
C400        C  0.35088946  0.15140980  0.71594593    -0.06300
C401        C  0.37208814  0.21643117  0.71767844    -0.07100
C402        C  0.30821563  0.17078225  0.71349372    -0.07000
C403        C  0.34957211  0.15153514  0.75694071    -0.06300
C404        C  0.37018126  0.21628325  0.75814953    -0.07100
C405        C  0.30617219  0.17006583  0.75454030    -0.07000
C406        C  0.35840322  0.12655002  0.76957610    -0.32400
N407        N  0.36512398  0.11152977  0.73740900     0.14100
C408        C  0.35958034  0.12568003  0.70456660    -0.32400
H409        H  0.36388470  0.11926564  0.67478291     0.16100
C410        C  0.39279510  0.25208462  0.77177853    -0.31400
N411        N  0.40891042  0.27363271  0.74021840     0.12800
C412        C  0.39610308  0.25212671  0.70694864    -0.31300
C413        C  0.26983155  0.14732376  0.76359653    -0.31600
N414        N  0.24987613  0.13691207  0.72981098     0.13400
H415        H  0.25883832  0.13755460  0.79256444     0.16000
C416        C  0.27310388  0.14924012  0.69919947    -0.31600
H417        H  0.26505888  0.14057104  0.66875485     0.16000
H418        H  0.40200874  0.26216884  0.67714857     0.16000
H419        H  0.36229797  0.12155180  0.79978955     0.16100
H420        H  0.39574673  0.26204209  0.80205283     0.16000
O421        O  0.07321960  0.01406263  0.95839294    -0.80300
O422        O  0.47127967  0.05707150  0.92731579    -0.80300
O423        O  0.05346083  0.09489622  0.89370737    -0.80300
O424        O  0.46670222  0.48739034  0.50941390    -0.80200
O425        O  0.00254674  0.07227508  0.85980020    -0.80400
O426        O  0.02487077  0.51689464  0.50710965    -0.80300
O427        O  0.43490743  0.01000600  0.96076039    -0.80300
O428        O  0.08424921  0.06730103  0.93955135    -0.80300
C429        C  0.09495378  0.04842516  0.95602861     1.05200
C430        C  0.44667050  0.04256961  0.95221349     1.09300
C431        C  0.03309019  0.09948917  0.87115790     1.09400
C432        C  0.49667076  0.50561266  0.52756537     1.09300
O433        O  0.51256958  0.44977896  0.98362716    -0.80300
O434        O  0.48051553  0.99607853  0.84280167    -0.80400
O435        O  0.06574367  0.50948937  0.88101502    -0.80300
O436        O  0.43029784  0.46414367  0.89572432    -0.80300
O437        O  0.42949525  0.51009108  0.86715218    -0.80300
O438        O  0.01616465  0.46374990  0.90507074    -0.80300
O439        O  0.46246085  0.43488248  0.94961418    -0.80200
O440        O  0.03603193  0.03982292  0.83309336    -0.80300
Co441      Co  0.01894029  0.49043961  0.95519576     1.51500
Co442      Co  0.47559068  0.02447152  0.88857850     1.51700
Co443      Co  0.05613235  0.05043394  0.88975131     1.51600
Co444      Co  0.45598419  0.47956782  0.95008093     1.51500
O445        O  0.00980834  0.02317548  0.92518386    -1.42200
C446        C  0.48097247  0.42582548  0.97143050     1.09300
C447        C  0.00575340  0.01457968  0.81879539     1.09400
C448        C  0.04473843  0.47529317  0.88555439     1.09400
C449        C  0.41247890  0.47675298  0.87818108     1.09300
O450        O  0.07668580  0.01097336  0.72652982    -0.80300
O451        O  0.47638228  0.06019289  0.69912677    -0.80300
O452        O  0.06041546  0.06576116  0.61306241    -0.80300
O453        O  0.47019640  0.48301619  0.75871333    -0.80200
O454        O  0.03762604  0.08645250  0.65601251    -0.80400
O455        O  0.02699151  0.52792279  0.75143190    -0.80300
O456        O  0.43089510  0.00537017  0.71360253    -0.80300
O457        O  0.07993723  0.04901165  0.68155221    -0.80300
C458        C  0.09551256  0.04077162  0.70847173     1.09400
C459        C  0.44542857  0.04007740  0.71413380     1.09300
C460        C  0.06091024  0.09260655  0.63020163     1.09400
C461        C  0.50047546  0.50845580  0.77413308     1.09300
O462        O  0.50601787  0.45449767  0.73101956    -0.80300
O463        O  0.49466226  0.03621124  0.58848321    -0.80400
O464        O  0.07494097  0.51042867  0.61481113    -0.80300
O465        O  0.42464399  0.45789166  0.64937380    -0.80300
O466        O  0.43346076  0.51203428  0.63534066    -0.80300
O467        O  0.04022567  0.47165830  0.66059117    -0.80300
O468        O  0.46025869  0.43297067  0.69063728    -0.80200
O469        O  0.00626619  0.99189989  0.59344323    -0.80300
Co470      Co  0.03300272  0.50317459  0.70387044     1.51500
Co471      Co  0.48681277  0.04673456  0.64669745     1.51700
Co472      Co  0.03910406  0.01704793  0.63979771     1.51600
Co473      Co  0.44980071  0.47197793  0.70106314     1.51500
O474        O  0.99650047  0.00970667  0.67307548    -1.42200
C475        C  0.47765371  0.42731812  0.71606142     1.09300
C476        C  0.99847064  0.01099659  0.57209240     1.09400
C477        C  0.06331124  0.48037384  0.63230505     1.09400
C478        C  0.41363698  0.47713401  0.63420119     1.09300
C479        C  0.16407001  0.35009352  0.81858743     0.29900
C480        C  0.16236795  0.34557846  0.89847683     0.29900
C481        C  0.14586481  0.36853600  0.84031020    -0.06300
C482        C  0.14208651  0.31097875  0.83475473    -0.07100
C483        C  0.20089619  0.36669831  0.83946148    -0.07000
C484        C  0.14675576  0.36769047  0.88131249    -0.06300
C485        C  0.14145618  0.30897583  0.87545314    -0.07100
C486        C  0.20027096  0.36486366  0.88009560    -0.07000
C487        C  0.13044218  0.38577906  0.89568105    -0.32400
N488        N  0.11572708  0.39403238  0.86513307     0.14100
C489        C  0.12495655  0.38326544  0.83109555    -0.32400
H490        H  0.11591736  0.38457090  0.80182289     0.16100
C491        C  0.11832819  0.27284636  0.88487355    -0.31400
N492        N  0.10477376  0.25278151  0.85087419     0.12800
C493        C  0.11905342  0.27564861  0.81995680    -0.31300
C494        C  0.23593879  0.38325351  0.89290967    -0.31600
N495        N  0.25774188  0.39475858  0.86093990     0.13400
H496        H  0.24569568  0.38875045  0.92315915     0.16000
C497        C  0.23663770  0.38492028  0.82802517    -0.31600
H498        H  0.24655105  0.39054286  0.79807521     0.16000
H499        H  0.11262010  0.26716917  0.78921740     0.16000
H500        H  0.13004883  0.39267473  0.92642192     0.16100
H501        H  0.11176758  0.26185251  0.91425703     0.16000
C502        C  0.16550835  0.33908122  0.56826577     0.29900
C503        C  0.16889334  0.34387979  0.64842088     0.29900
C504        C  0.14383589  0.35469296  0.58814619    -0.06300
C505        C  0.15191708  0.30277439  0.58928916    -0.07100
C506        C  0.20359843  0.36482586  0.58623592    -0.07000
C507        C  0.14488600  0.35622050  0.62919990    -0.06300
C508        C  0.15263901  0.30488922  0.63007988    -0.07100
C509        C  0.20508587  0.36657810  0.62715356    -0.07000
C510        C  0.12664651  0.37325699  0.64145765    -0.32400
N511        N  0.11640392  0.38382400  0.60919349     0.14100
C512        C  0.12732612  0.37346071  0.57653711    -0.32400
H513        H  0.12541360  0.38122468  0.54688336     0.16100
C514        C  0.13780714  0.26941861  0.64280056    -0.31400
N515        N  0.13179557  0.24654696  0.61120683     0.12800
C516        C  0.13942746  0.26672284  0.57813234    -0.31300
C517        C  0.24078580  0.38949324  0.63837778    -0.31600
N518        N  0.26102758  0.40199304  0.60534897     0.13400
H519        H  0.25146711  0.39589219  0.66828081     0.16000
C520        C  0.23874364  0.38758019  0.57327868    -0.31600
H521        H  0.24768759  0.39309733  0.54303425     0.16000
H522        H  0.13721505  0.25636729  0.54816195     0.16000
H523        H  0.12274486  0.37960343  0.67147098     0.16100
H524        H  0.13145471  0.26083618  0.67301029     0.16000
C525        C  0.17640808  0.32690159  0.75644451    -0.26500
C526        C  0.16902560  0.35229608  0.77454554    -0.14500
C527        C  0.17570290  0.38285444  0.75215048     0.36100
C528        C  0.17636033  0.37989187  0.71118547    -0.25900
C529        C  0.17335394  0.34862431  0.69266804    -0.15100
C530        C  0.18083356  0.32634614  0.71578596     0.37200
N531        N  0.19516507  0.30548206  0.69863352    -0.89400
H532        H  0.18018000  0.30838633  0.77425027     0.18300
H533        H  0.18091061  0.40290095  0.69386643     0.18300
N534        N  0.18662876  0.41839042  0.76909548    -0.88400
H535        H  0.19946924  0.29101516  0.72020795     0.35700
H536        H  0.22058146  0.32411105  0.68698161     0.40800
H537        H  0.19312675  0.42063933  0.79905904     0.40400
H538        H  0.16589899  0.42362366  0.76471522     0.35300
C539        C  0.13097410  0.32876594  0.00519486    -0.26500
C540        C  0.16230204  0.33411520  0.52399552    -0.14500
C541        C  0.18738255  0.33031813  0.00055815     0.36100
C542        C  0.18636549  0.33364116  0.95994169    -0.25900
C543        C  0.16064880  0.33973606  0.94229672    -0.15100
C544        C  0.12959967  0.33086027  0.96437866     0.37200
N545        N  0.09603787  0.32127834  0.94562027    -0.89400
H546        H  0.10698174  0.32206675  0.52193594     0.18300
H547        H  0.20495525  0.32981480  0.94210297     0.18300
N548        N  0.21171412  0.31994825  0.51566004    -0.88400
H549        H  0.08683016  0.33723289  0.95878898     0.35700
H550        H  0.07701171  0.29383195  0.95178036     0.40800
H551        H  0.20898713  0.31538049  0.54586490     0.40400
H552        H  0.23845938  0.34115872  0.01027397     0.35300
C553        C  0.10996707  0.15509247  0.64975814    -0.26500
C554        C  0.08679094  0.13101646  0.62004175    -0.14500
C555        C  0.08286862  0.14531169  0.58474233     0.36100
C556        C  0.09904303  0.18356112  0.58146475    -0.25900
C557        C  0.11980831  0.20787443  0.61276537    -0.15100
C558        C  0.12757819  0.19336174  0.64596650     0.37200
N559        N  0.15304382  0.21733960  0.67586446    -0.89400
H560        H  0.11327314  0.14391742  0.67671618     0.18300
H561        H  0.09364858  0.19396065  0.55520940     0.18300
N562        N  0.06058574  0.12097270  0.55325008    -0.88400
H563        H  0.17849585  0.23212916  0.66267190     0.35700
H564        H  0.15534018  0.20219958  0.69825282     0.40800
H565        H  0.07650931  0.12747917  0.52795245     0.40400
H566        H  0.03980205  0.12598382  0.54768235     0.35300
C567        C  0.35748550  0.47840401  0.62124553    -0.26500
C568        C  0.37551577  0.45888468  0.61946518    -0.14500
C569        C  0.35558891  0.42118920  0.60808995     0.36100
C570        C  0.31802812  0.40352060  0.60101680    -0.25900
C571        C  0.29992614  0.42260028  0.60519816    -0.15100
C572        C  0.31994619  0.46066826  0.61440072     0.37200
N573        N  0.30298207  0.48192824  0.61752785    -0.89400
H574        H  0.37229933  0.00737068  0.62978720     0.18300
H575        H  0.30234869  0.37428791  0.59397966     0.18300
N576        N  0.37341593  0.40081730  0.60465214    -0.88400
H577        H  0.30517677  0.99091909  0.64677959     0.35700
H578        H  0.27531390  0.46597433  0.61053622     0.40800
H579        H  0.39245337  0.41272666  0.58222792     0.40400
H580        H  0.35504902  0.37355721  0.59564341     0.35300
C581        C  0.11369161  0.46981779  0.61964596    -0.26500
C582        C  0.07614293  0.45542484  0.62105084    -0.14500
C583        C  0.05189254  0.41711825  0.61503954     0.36100
C584        C  0.06558593  0.39395451  0.60972541    -0.25900
C585        C  0.10302570  0.40826300  0.61024727    -0.15100
C586        C  0.12733751  0.44646813  0.61444741     0.37200
N587        N  0.16574569  0.46103038  0.61481856    -0.89400
H588        H  0.13236994  0.49912407  0.62430629     0.18300
H589        H  0.04699050  0.36454605  0.60604174     0.18300
N590        N  0.01337668  0.40114888  0.61335617    -0.88400
H591        H  0.18009217  0.48964472  0.61869256     0.35700
H592        H  0.17266545  0.45555877  0.58699978     0.40800
H593        H  0.00756573  0.41430263  0.59155573     0.40400
H594        H  0.00462304  0.40566273  0.64046202     0.35300
C595        C  0.09541955  0.19325740  0.82991807    -0.26500
C596        C  0.08224915  0.21344948  0.84872321    -0.14500
C597        C  0.04962026  0.19495070  0.86988284     0.36100
C598        C  0.03161455  0.15667865  0.87383547    -0.25900
C599        C  0.04641518  0.13691674  0.85776892    -0.15100
C600        C  0.07813022  0.15511531  0.83480071     0.37200
N601        N  0.09358446  0.13503715  0.81831339    -0.89400
H602        H  0.12064794  0.20773925  0.81385694     0.18300
H603        H  0.00745845  0.14282396  0.89172634     0.18300
N604        N  0.03549528  0.21527104  0.88847364    -0.88400
H605        H  0.11716094  0.15255459  0.80270630     0.35700
H606        H  0.07495210  0.11580796  0.79774836     0.40800
H607        H  0.03382496  0.21056742  0.91878295     0.40400
H608        H  0.00917337  0.20480381  0.87763518     0.35300
C609        C  0.31343007  0.39990450  0.88540196    -0.26500
C610        C  0.29660290  0.41365223  0.86227594    -0.14500
C611        C  0.31795611  0.44636908  0.84190046     0.36100
C612        C  0.35580875  0.46563382  0.84600559    -0.25900
C613        C  0.37291970  0.45277885  0.87038489    -0.15100
C614        C  0.35135406  0.41892902  0.88965629     0.37200
N615        N  0.36765698  0.40431358  0.91424234    -0.89400
H616        H  0.29670673  0.37443738  0.90070962     0.18300
H617        H  0.37172828  0.99120748  0.83071131     0.18300
N618        N  0.30111743  0.46088005  0.81838094    -0.88400
H619        H  0.34808718  0.37821051  0.92399847     0.35700
H620        H  0.37790626  0.42128789  0.93953087     0.40800
H621        H  0.31038983  0.46295392  0.78953061     0.40400
H622        H  0.30959991  0.98723923  0.82884530     0.35300
C623        C  0.05832717  0.42943272  0.90697808    -0.26500
C624        C  0.05745796  0.44996236  0.87598733    -0.14500
C625        C  0.07287121  0.44903885  0.83949969     0.36100
C626        C  0.09190626  0.43055112  0.83641096    -0.25900
C627        C  0.09409982  0.41102164  0.86830725    -0.15100
C628        C  0.07507521  0.40909350  0.90321803     0.37200
N629        N  0.07220298  0.38645997  0.93519750    -0.89400
H630        H  0.04689872  0.43006609  0.93522205     0.18300
H631        H  0.10530431  0.43191069  0.80891767     0.18300
N632        N  0.06931993  0.46594681  0.80508182    -0.88400
H633        H  0.04472160  0.36772500  0.94026075     0.35700
H634        H  0.08323892  0.40328908  0.96055573     0.40800
H635        H  0.05312686  0.47704128  0.81056977     0.40400
H636        H  0.05562417  0.44531907  0.78341595     0.35300
C637        C  0.36689909  0.05488574  0.73583747    -0.26500
C638        C  0.38529479  0.09337540  0.73781604    -0.14500
C639        C  0.42363959  0.11394982  0.73658751     0.36100
C640        C  0.44252412  0.09566636  0.73165200    -0.25900
C641        C  0.42434286  0.05712344  0.72759180    -0.15100
C642        C  0.38589413  0.03642258  0.73079939     0.37200
N643        N  0.36600480  0.99698058  0.72659663    -0.89400
H644        H  0.33752344  0.03931671  0.73686596     0.18300
H645        H  0.47182400  0.11207748  0.72949266     0.18300
N646        N  0.44433992  0.15349334  0.73930721    -0.88400
H647        H  0.33807738  0.98634647  0.72645008     0.35700
H648        H  0.37166906  0.98677644  0.75154221     0.40800
H649        H  0.42792630  0.16437067  0.74414339     0.40400
H650        H  0.45690545  0.16312148  0.71212516     0.35300
C651        C  0.41240169  0.33191362  0.75284879    -0.26500
C652        C  0.42952870  0.31316579  0.74071134    -0.14500
C653        C  0.46490446  0.33322230  0.72483694     0.36100
C654        C  0.48150931  0.37130050  0.71981700    -0.25900
C655        C  0.46306658  0.38939454  0.72903108    -0.15100
C656        C  0.42838230  0.36966996  0.74628340     0.37200
N657        N  0.40922241  0.38790740  0.75636244    -0.89400
H658        H  0.38533666  0.31640216  0.76493054     0.18300
H659        H  0.50818777  0.38642654  0.70674456     0.18300
N660        N  0.48421072  0.31572318  0.71250737    -0.88400
H661        H  0.38490823  0.36990872  0.77051575     0.35700
H662        H  0.40191038  0.39480402  0.73006260     0.40800
H663        H  0.46974912  0.28781537  0.71904844     0.40400
H664        H  0.50821455  0.32758965  0.72915498     0.35300
C665        C  0.19192887  0.08356686  0.75033876    -0.26500
C666        C  0.21098446  0.11416783  0.72645331    -0.14500
C667        C  0.19170588  0.12210121  0.69901501     0.36100
C668        C  0.15407611  0.09811024  0.69457323    -0.25900
C669        C  0.13486797  0.06648899  0.71741668    -0.15100
C670        C  0.15440219  0.05977385  0.74618148     0.37200
N671        N  0.13726281  0.02921262  0.77175374    -0.89400
H672        H  0.20650014  0.07751048  0.77175924     0.18300
H673        H  0.13986257  0.10406301  0.67260522     0.18300
N674        N  0.21042731  0.15464686  0.67590358    -0.88400
H675        H  0.12524492  0.00488669  0.75466698     0.35700
H676        H  0.11769232  0.03120835  0.78784812     0.40800
H677        H  0.22081370  0.17736985  0.69539608     0.40400
H678        H  0.19239239  0.15640533  0.65695676     0.35300
C679        C  0.37432319  0.06094636  0.98649307    -0.26500
C680        C  0.39245541  0.09884835  0.98197904    -0.14500
C681        C  0.42978096  0.11909161  0.97377529     0.36100
C682        C  0.44776087  0.10028198  0.96629873    -0.25900
C683        C  0.42910938  0.06181597  0.96797629    -0.15100
C684        C  0.39237671  0.04202674  0.98024116     0.37200
N685        N  0.37295423  0.00275045  0.98432064    -0.89400
H686        H  0.34575575  0.04612213  0.99374746     0.18300
H687        H  0.47609303  0.11556111  0.95805225     0.18300
N688        N  0.44909007  0.15862557  0.47264473    -0.88400
H689        H  0.34589265  0.49265964  0.99158914     0.35700
H690        H  0.38432287  0.49759237  0.00903877     0.40800
H691        H  0.43918921  0.16579222  0.44869366     0.40400
H692        H  0.47665371  0.16932999  0.96784083     0.35300
C693        C  0.42535150  0.33207517  0.51502891    -0.26500
C694        C  0.42931216  0.31042240  0.98602933    -0.14500
C695        C  0.45398562  0.32761017  0.95488539     0.36100
C696        C  0.47141632  0.36577488  0.95134789    -0.25900
C697        C  0.46616575  0.38709785  0.97932531    -0.15100
C698        C  0.44355516  0.37024629  0.51214649     0.37200
N699        N  0.43705622  0.39057816  0.54194105    -0.89400
H700        H  0.40649831  0.31915625  0.53897245     0.18300
H701        H  0.48807081  0.37867689  0.92589614     0.18300
N702        N  0.46074270  0.30623480  0.92668305    -0.88400
H703        H  0.41002723  0.38308766  0.53875013     0.35700
H704        H  0.45300913  0.41894620  0.53805201     0.40800
H705        H  0.47273787  0.29420293  0.94188850     0.40400
H706        H  0.47945750  0.32315482  0.90560075     0.35300
C707        C  0.15347909  0.10601581  0.97024566    -0.26500
C708        C  0.13342681  0.06730752  0.96975664    -0.14500
C709        C  0.15163037  0.04856502  0.97808935     0.36100
C710        C  0.18952286  0.06911550  0.98478311    -0.25900
C711        C  0.20924013  0.10761376  0.98335536    -0.15100
C712        C  0.19090593  0.12612578  0.47640124     0.37200
N713        N  0.20951230  0.16555848  0.47469087    -0.89400
H714        H  0.14016583  0.12095488  0.46450397     0.18300
H715        H  0.20402948  0.05516773  0.98976926     0.18300
N716        N  0.13219219  0.00904229  0.97804100    -0.88400
H717        H  0.20762313  0.17214465  0.44559602     0.35700
H718        H  0.23705737  0.17811561  0.48150080     0.40800
H719        H  0.11462463  0.00049984  0.00207568     0.40400
H720        H  0.14998126  0.99984110  0.98289970     0.35300
C721        C  0.37198385  0.18407582  0.83917758    -0.26500
C722        C  0.34265757  0.18256467  0.81993577    -0.14500
C723        C  0.31986549  0.19059503  0.84203976     0.36100
C724        C  0.31962401  0.18776186  0.88280362    -0.25900
C725        C  0.34417803  0.18091302  0.90188689    -0.15100
C726        C  0.37428235  0.18540625  0.87998444     0.37200
N727        N  0.40855757  0.19474795  0.89711642    -0.89400
H728        H  0.39415229  0.18584665  0.82228622     0.18300
H729        H  0.30159367  0.19314211  0.89975320     0.18300
N730        N  0.29943805  0.20429612  0.82377810    -0.88400
H731        H  0.41329734  0.17362320  0.89028468     0.35700
H732        H  0.40981398  0.19886647  0.92757208     0.40800
H733        H  0.31801507  0.22963848  0.81162277     0.40400
H734        H  0.28467022  0.20937925  0.84471844     0.35300
C735        C  0.37365245  0.18163632  0.58934471    -0.26500
C736        C  0.34475388  0.18118430  0.56996834    -0.14500
C737        C  0.32434780  0.19252067  0.59163809     0.36100
C738        C  0.32615995  0.19340273  0.63247664    -0.25900
C739        C  0.34853641  0.18394742  0.65221588    -0.15100
C740        C  0.37645061  0.18378883  0.63034596     0.37200
N741        N  0.40924568  0.18915652  0.64773881    -0.89400
H742        H  0.39520694  0.18206851  0.57262853     0.18300
H743        H  0.31021738  0.20214355  0.64860434     0.18300
N744        N  0.30334897  0.20503781  0.57261979    -0.88400
H745        H  0.41066777  0.16582974  0.64172529     0.35700
H746        H  0.41070547  0.19377668  0.67818159     0.40800
H747        H  0.31375339  0.23243164  0.58141630     0.40400
H748        H  0.27666799  0.18956076  0.58274483     0.35300
C749        C  0.34169752  0.67735555  0.44580684     0.29900
C750        C  0.34223360  0.67773926  0.02576809     0.29900
C751        C  0.35233382  0.65188259  0.46439017    -0.06300
C752        C  0.36636961  0.71424804  0.46626737    -0.07100
C753        C  0.30472630  0.66400609  0.46510544    -0.07000
C754        C  0.35306688  0.65232760  0.00550935    -0.06300
C755        C  0.36721325  0.71466601  0.00670830    -0.07100
C756        C  0.30479883  0.66379869  0.00636716    -0.07000
C757        C  0.36517895  0.62972220  0.01659218    -0.32400
N758        N  0.37238912  0.61664911  0.48335238     0.14100
C759        C  0.36364463  0.62890281  0.45136246    -0.32400
H760        H  0.36703829  0.62278143  0.42107572     0.16100
C761        C  0.39187015  0.75026133  0.01899380    -0.31400
N762        N  0.40558816  0.77117900  0.98645161     0.12800
C763        C  0.38953283  0.74929931  0.45416154    -0.31300
C764        C  0.26925764  0.63999874  0.01756152    -0.31600
N765        N  0.24802234  0.62740660  0.48460211     0.13400
H766        H  0.25960243  0.63154069  0.04722281     0.16000
C767        C  0.26939636  0.64061313  0.45259258    -0.31600
H768        H  0.25980597  0.63263666  0.42241860     0.16000
H769        H  0.39342251  0.75830230  0.42398253     0.16000
H770        H  0.36999305  0.62419146  0.04620301     0.16100
H771        H  0.39904941  0.76021028  0.04925757     0.16000
C772        C  0.34523753  0.68044349  0.19620396     0.29900
C773        C  0.34154372  0.67986982  0.27581919     0.29900
C774        C  0.35089230  0.65149588  0.21586897    -0.06300
C775        C  0.37212127  0.71652066  0.21764467    -0.07100
C776        C  0.30823729  0.67091203  0.21338375    -0.07000
C777        C  0.34952297  0.65158787  0.25686301    -0.06300
C778        C  0.37017063  0.71634114  0.25811143    -0.07100
C779        C  0.30615652  0.67016650  0.25442981    -0.07000
C780        C  0.35835993  0.62660979  0.26951120    -0.32400
N781        N  0.36514414  0.61162761  0.23735706     0.14100
C782        C  0.35963735  0.62579845  0.20450555    -0.32400
H783        H  0.36399675  0.61941756  0.17473047     0.16100
C784        C  0.39281189  0.75212041  0.27178329    -0.31400
N785        N  0.40898758  0.77368748  0.24025304     0.12800
C786        C  0.39619513  0.75221476  0.20695914    -0.31300
C787        C  0.26980957  0.64741128  0.26344547    -0.31600
N788        N  0.24988054  0.63702000  0.22964301     0.13400
H789        H  0.25879486  0.63760221  0.29239692     0.16000
C790        C  0.27313176  0.64938516  0.19905288    -0.31600
H791        H  0.26510956  0.64073608  0.16859979     0.16000
H792        H  0.40214781  0.76228339  0.17717120     0.16000
H793        H  0.36221809  0.62159428  0.29973067     0.16100
H794        H  0.39573839  0.76205503  0.30206428     0.16000
O795        O  0.07316409  0.51396138  0.45826535    -0.80300
O796        O  0.47133473  0.55710311  0.42750069    -0.80300
O797        O  0.05344456  0.59486596  0.39363952    -0.80300
O798        O  0.46675626  0.98745025  0.00932156    -0.80200
O799        O  0.00252681  0.57226657  0.35973800    -0.80400
O800        O  0.02487711  0.01692923  0.00720647    -0.80300
O801        O  0.43489784  0.51003869  0.46090311    -0.80300
O802        O  0.08421835  0.56721797  0.43946028    -0.80300
C803        C  0.09491721  0.54831926  0.45589903     1.05200
C804        C  0.44672663  0.54262628  0.45240026     1.09300
C805        C  0.03308122  0.59947573  0.37109316     1.09400
C806        C  0.49672117  0.00564976  0.02748954     1.09300
O807        O  0.51246430  0.94973815  0.48367235    -0.80300
O808        O  0.48042594  0.49611169  0.34288902    -0.80400
O809        O  0.06568202  0.00949304  0.38101066    -0.80300
O810        O  0.43022525  0.96410885  0.39572851    -0.80300
O811        O  0.42941468  0.01006592  0.36719225    -0.80300
O812        O  0.01610975  0.96374541  0.40507598    -0.80300
O813        O  0.46237607  0.93482740  0.44961069    -0.80200
O814        O  0.03597281  0.53978996  0.33302108    -0.80300
Co815      Co  0.01891123  0.99042744  0.45521836     1.51500
Co816      Co  0.47555035  0.52448861  0.38871165     1.51700
Co817      Co  0.05608402  0.55038254  0.38966806     1.51600
Co818      Co  0.45592086  0.97952227  0.45007018     1.51500
O819        O  0.00976615  0.52314014  0.42510725    -1.42200
C820        C  0.48087179  0.92577887  0.47146565     1.09300
C821        C  0.00569823  0.51453741  0.31872819     1.09400
C822        C  0.04467142  0.97529412  0.38553111     1.09400
C823        C  0.41239883  0.97672960  0.37822833     1.09300
O824        O  0.07667892  0.51099149  0.22649317    -0.80300
O825        O  0.47635176  0.56022631  0.19916342    -0.80300
O826        O  0.06041981  0.56580649  0.11303359    -0.80300
O827        O  0.47012684  0.98300789  0.25866750    -0.80200
O828        O  0.03762870  0.58645915  0.15602018    -0.80400
O829        O  0.02694943  0.02799466  0.25152538    -0.80300
O830        O  0.43086724  0.50539954  0.21363812    -0.80300
O831        O  0.07991566  0.54902885  0.18152343    -0.80300
C832        C  0.09550452  0.54078231  0.20841814     1.09400
C833        C  0.44539699  0.54010620  0.21417194     1.09300
C834        C  0.06090632  0.59264130  0.13019450     1.09400
C835        C  0.50040433  0.00843350  0.27410081     1.09300
O836        O  0.50600305  0.95452418  0.23100382    -0.80300
O837        O  0.49467192  0.53621637  0.08853199    -0.80400
O838        O  0.07490374  0.01041869  0.11491047    -0.80300
O839        O  0.42462234  0.95787642  0.14930994    -0.80300
O840        O  0.43344977  0.01201702  0.13525051    -0.80300
O841        O  0.04022915  0.97170632  0.16075888    -0.80300
O842        O  0.46023112  0.93296546  0.19062951    -0.80200
O843        O  0.00628386  0.49192924  0.09339249    -0.80300
Co844      Co  0.03299330  0.00323859  0.20399924     1.51500
Co845      Co  0.48680576  0.54674822  0.14674681     1.51700
Co846      Co  0.03910876  0.51707394  0.13975171     1.51600
Co847      Co  0.44975800  0.97197097  0.20101139     1.51500
O848        O  0.99648741  0.50969900  0.17301966    -1.42200
C849        C  0.47763837  0.92733597  0.21606288     1.09300
C850        C  0.99847628  0.51102086  0.07205043     1.09400
C851        C  0.06328221  0.98038508  0.13244618     1.09400
C852        C  0.41361743  0.97711721  0.13412822     1.09300
C853        C  0.16403190  0.85012352  0.31853003     0.29900
C854        C  0.16225785  0.84555532  0.39841110     0.29900
C855        C  0.14583453  0.86857937  0.34024026    -0.06300
C856        C  0.14200943  0.81099556  0.33466262    -0.07100
C857        C  0.20083521  0.86668764  0.33943598    -0.07000
C858        C  0.14668151  0.86769896  0.38124363    -0.06300
C859        C  0.14134162  0.80896742  0.37535890    -0.07100
C860        C  0.20017431  0.86483630  0.38006526    -0.07000
C861        C  0.13037733  0.88579979  0.39560000    -0.32400
N862        N  0.11571419  0.89410000  0.36503831     0.14100
C863        C  0.12497095  0.88335513  0.33100630    -0.32400
H864        H  0.11597294  0.88470114  0.30172544     0.16100
C865        C  0.11821128  0.77282945  0.38474849    -0.31400
N866        N  0.10469876  0.75278010  0.35073315     0.12800
C867        C  0.11900628  0.77566747  0.31983392    -0.31300
C868        C  0.23583036  0.88322352  0.39291649    -0.31600
N869        N  0.25766151  0.89472902  0.36096989     0.13400
H870        H  0.24555927  0.88872028  0.42317679     0.16000
C871        C  0.23658415  0.88489627  0.32803413    -0.31600
H872        H  0.24651908  0.89051704  0.29809239     0.16000
H873        H  0.11262057  0.76720201  0.28908591     0.16000
H874        H  0.12994783  0.89266699  0.42634340     0.16100
H875        H  0.11162950  0.76181651  0.41412271     0.16000
C876        C  0.16550357  0.83916727  0.06825053     0.29900
C877        C  0.16889501  0.84395855  0.14840332     0.29900
C878        C  0.14373815  0.85467355  0.08814719    -0.06300
C879        C  0.15200281  0.80286796  0.08927212    -0.07100
C880        C  0.20357799  0.86499649  0.08622127    -0.07000
C881        C  0.14480418  0.85620027  0.12920372    -0.06300
C882        C  0.15272511  0.80498392  0.13006139    -0.07100
C883        C  0.20506749  0.86673929  0.12713546    -0.07000
C884        C  0.12654330  0.87320169  0.14149308    -0.32400
N885        N  0.11625849  0.88374819  0.10924786     0.14100
C886        C  0.12718504  0.87341068  0.07657153    -0.32400
H887        H  0.12526915  0.88119560  0.04692942     0.16100
C888        C  0.13787946  0.76951543  0.14279259    -0.31400
N889        N  0.13186076  0.74663343  0.11120938     0.12800
C890        C  0.13950412  0.76680759  0.07812752    -0.31300
C891        C  0.24076078  0.88967741  0.13836585    -0.31600
N892        N  0.26100075  0.90220714  0.10534158     0.13400
H893        H  0.25144421  0.89603750  0.16826856     0.16000
C894        C  0.23871908  0.88778757  0.07326927    -0.31600
H895        H  0.24766844  0.89328773  0.04302556     0.16000
H896        H  0.13725817  0.75643696  0.04815861     0.16000
H897        H  0.12268100  0.87956508  0.17151481     0.16100
H898        H  0.13149485  0.76093828  0.17300108     0.16000
C899        C  0.17641979  0.82697278  0.25640198    -0.26500
C900        C  0.16903024  0.85236092  0.27450124    -0.14500
C901        C  0.17574074  0.88294020  0.25212328     0.36100
C902        C  0.17638827  0.87998202  0.21115793    -0.25900
C903        C  0.17337040  0.84870909  0.19264126    -0.15100
C904        C  0.18086229  0.82643597  0.21574959     0.37200
N905        N  0.19523170  0.80560710  0.19859547    -0.89400
H906        H  0.18018415  0.80845058  0.27420449     0.18300
H907        H  0.18092569  0.90298643  0.19383696     0.18300
N908        N  0.18670985  0.91848237  0.26908438    -0.88400
H909        H  0.19954684  0.79114531  0.22016739     0.35700
H910        H  0.22064533  0.82425902  0.18695600     0.40800
H911        H  0.19317453  0.92070103  0.29905567     0.40400
H912        H  0.16601583  0.92376441  0.26468763     0.35300
C913        C  0.13086751  0.82869402  0.50513118    -0.26500
C914        C  0.16233777  0.83421501  0.02397266    -0.14500
C915        C  0.18726625  0.83023293  0.50046076     0.36100
C916        C  0.18623184  0.83355420  0.45984804    -0.25900
C917        C  0.16052892  0.83968334  0.44222482    -0.15100
C918        C  0.12948759  0.83081145  0.46431623     0.37200
N919        N  0.09593288  0.82126530  0.44556768    -0.89400
H920        H  0.10701884  0.82216003  0.02184367     0.18300
H921        H  0.20480652  0.82971468  0.44199610     0.18300
N922        N  0.21181971  0.82013252  0.01571896    -0.88400
H923        H  0.08674326  0.83722549  0.45875968     0.35700
H924        H  0.07689326  0.79381745  0.45170978     0.40800
H925        H  0.20909788  0.81559694  0.04593012     0.40400
H926        H  0.23834036  0.84105200  0.51013730     0.35300
C927        C  0.10994056  0.65514008  0.14977382    -0.26500
C928        C  0.08676523  0.63106862  0.12005207    -0.14500
C929        C  0.08281622  0.64537891  0.08477683     0.36100
C930        C  0.09901411  0.68363335  0.08150249    -0.25900
C931        C  0.11981434  0.70794415  0.11278838    -0.15100
C932        C  0.12755673  0.69341388  0.14599658     0.37200
N933        N  0.15299649  0.71737602  0.17592249    -0.89400
H934        H  0.11324261  0.64395766  0.17672772     0.18300
H935        H  0.09361449  0.69404224  0.05525826     0.18300
N936        N  0.06048195  0.62105057  0.05330545    -0.88400
H937        H  0.17846566  0.73216800  0.16275816     0.35700
H938        H  0.15526534  0.70222782  0.19831635     0.40800
H939        H  0.07636995  0.62754685  0.02798082     0.40400
H940        H  0.03970557  0.62608478  0.04779049     0.35300
C941        C  0.35754504  0.97849478  0.12101821    -0.26500
C942        C  0.37548724  0.95888119  0.11941512    -0.14500
C943        C  0.35546168  0.92113338  0.10825534     0.36100
C944        C  0.31790240  0.90352868  0.10121343    -0.25900
C945        C  0.29989753  0.92272022  0.10519443    -0.15100
C946        C  0.32000758  0.96082212  0.11419741     0.37200
N947        N  0.30313811  0.98218029  0.11715686    -0.89400
H948        H  0.37234365  0.50737440  0.12971710     0.18300
H949        H  0.30214758  0.87426742  0.09434145     0.18300
N950        N  0.37317989  0.90064247  0.10500879    -0.88400
H951        H  0.30527788  0.49101967  0.14677226     0.35700
H952        H  0.27545767  0.96625428  0.11021563     0.40800
H953        H  0.39217665  0.91235617  0.08251814     0.40400
H954        H  0.35473476  0.87334732  0.09618607     0.35300
C955        C  0.11362221  0.96977671  0.11979800    -0.26500
C956        C  0.07608090  0.95541135  0.12120230    -0.14500
C957        C  0.05180420  0.91711190  0.11517929     0.36100
C958        C  0.06546786  0.89392369  0.10985005    -0.25900
C959        C  0.10290381  0.90820702  0.11034389    -0.15100
C960        C  0.12723988  0.94640702  0.11456393     0.37200
N961        N  0.16564283  0.96094709  0.11491257    -0.89400
H962        H  0.13231751  0.99907803  0.12447074     0.18300
H963        H  0.04685341  0.86451934  0.10615820     0.18300
N964        N  0.01329412  0.90117977  0.11347710    -0.88400
H965        H  0.18000656  0.98955516  0.11880246     0.35700
H966        H  0.17254823  0.95548025  0.08706795     0.40800
H967        H  0.00751472  0.91435172  0.09166982     0.40400
H968        H  0.00454001  0.90570905  0.14057559     0.35300
C969        C  0.09545949  0.69327547  0.32988769    -0.26500
C970        C  0.08220409  0.71344369  0.34856671    -0.14500
C971        C  0.04952258  0.69492111  0.36963089     0.36100
C972        C  0.03155530  0.65665438  0.37364042    -0.25900
C973        C  0.04642966  0.63691567  0.35769758    -0.15100
C974        C  0.07819525  0.65513767  0.33480507     0.37200
N975        N  0.09371359  0.63508615  0.31841456    -0.89400
H976        H  0.12072568  0.70777493  0.31389533     0.18300
H977        H  0.00735895  0.64278744  0.39147028     0.18300
N978        N  0.03529845  0.71521585  0.38806105    -0.88400
H979        H  0.11731422  0.65261677  0.30284763     0.35700
H980        H  0.07513115  0.61584057  0.29782721     0.40800
H981        H  0.03355457  0.71055225  0.41838247     0.40400
H982        H  0.00899858  0.70469504  0.37712293     0.35300
C983        C  0.31333854  0.89996038  0.38561012    -0.26500
C984        C  0.29652224  0.91363374  0.36234883    -0.14500
C985        C  0.31788641  0.94629115  0.34187772     0.36100
C986        C  0.35573612  0.96556000  0.34599894    -0.25900
C987        C  0.37283446  0.95276822  0.37048373    -0.15100
C988        C  0.35126027  0.91899428  0.38988603     0.37200
N989        N  0.36755381  0.90447107  0.41462529    -0.89400
H990        H  0.29660945  0.87454376  0.40100016     0.18300
H991        H  0.37167091  0.49143625  0.33103876     0.18300
N992        N  0.30106401  0.96073705  0.31822891    -0.88400
H993        H  0.34797389  0.87842739  0.42451305     0.35700
H994        H  0.37784108  0.92156682  0.43982438     0.40800
H995        H  0.31034757  0.96272173  0.28939496     0.40400
H996        H  0.30951239  0.48745629  0.32926244     0.35300
C997        C  0.05821155  0.92937619  0.40686296    -0.26500
C998        C  0.05738271  0.94996351  0.37591244    -0.14500
C999        C  0.07285965  0.94911948  0.33943886     0.36100
C1000       C  0.09192732  0.93066331  0.33634045    -0.25900
C1001       C  0.09407218  0.91107259  0.36820383    -0.15100
C1002       C  0.07497042  0.90905053  0.40307860     0.37200
N1003       N  0.07203285  0.88633290  0.43499754    -0.89400
H1004       H  0.04675568  0.92996496  0.43510311     0.18300
H1005       H  0.10538029  0.93208678  0.30886828     0.18300
N1006       N  0.06933953  0.96607626  0.30504663    -0.88400
H1007       H  0.04454141  0.86757189  0.43997297     0.35700
H1008       H  0.08300434  0.90309391  0.46041069     0.40800
H1009       H  0.05309928  0.97711750  0.31053371     0.40400
H1010       H  0.05570623  0.94548675  0.28332952     0.35300
C1011       C  0.36686160  0.55494733  0.23569318    -0.26500
C1012       C  0.38528417  0.59343693  0.23780539    -0.14500
C1013       C  0.42363813  0.61398108  0.23677927     0.36100
C1014       C  0.44250725  0.59567658  0.23186462    -0.25900
C1015       C  0.42430353  0.55714407  0.22763810    -0.15100
C1016       C  0.38584141  0.53646274  0.23069848     0.37200
N1017       N  0.36593089  0.49702469  0.22640927    -0.89400
H1018       H  0.33748120  0.53939854  0.23659056     0.18300
H1019       H  0.47181860  0.61206674  0.22984969     0.18300
N1020       N  0.44436729  0.65351707  0.23968028    -0.88400
H1021       H  0.33800612  0.48640843  0.22623941     0.35700
H1022       H  0.37154344  0.48676446  0.25134456     0.40800
H1023       H  0.42795327  0.66440482  0.24443736     0.40400
H1024       H  0.45708597  0.66324289  0.21258696     0.35300
C1025       C  0.41245766  0.83194724  0.25292646    -0.26500
C1026       C  0.42960177  0.81321809  0.24078374    -0.14500
C1027       C  0.46497457  0.83328856  0.22490803     0.36100
C1028       C  0.48155257  0.87135989  0.21987438    -0.25900
C1029       C  0.46307906  0.88942737  0.22906017    -0.15100
C1030       C  0.42840587  0.86969367  0.24633432     0.37200
N1031       N  0.40922331  0.88790903  0.25640541    -0.89400
H1032       H  0.38539711  0.81642403  0.26501748     0.18300
H1033       H  0.50823447  0.88649946  0.20681347     0.18300
N1034       N  0.48430119  0.81580873  0.21258691    -0.88400
H1035       H  0.38491476  0.86990141  0.27056246     0.35700
H1036       H  0.40190021  0.89478999  0.23010207     0.40800
H1037       H  0.46986280  0.78790780  0.21915832     0.40400
H1038       H  0.50831629  0.82770702  0.22921839     0.35300
C1039       C  0.19199770  0.58352416  0.25004525    -0.26500
C1040       C  0.21099570  0.61421023  0.22626238    -0.14500
C1041       C  0.19166881  0.62216127  0.19891160     0.36100
C1042       C  0.15403357  0.59816379  0.19452906    -0.25900
C1043       C  0.13487435  0.56648826  0.21730537    -0.15100
C1044       C  0.15447376  0.55969835  0.24591153     0.37200
N1045       N  0.13740419  0.52903015  0.27134740    -0.89400
H1046       H  0.20661580  0.57743445  0.27136839     0.18300
H1047       H  0.13977732  0.60415141  0.17265148     0.18300
N1048       N  0.21034706  0.65472122  0.17581700    -0.88400
H1049       H  0.12533483  0.50476472  0.25415309     0.35700
H1050       H  0.11788186  0.53097221  0.28760122     0.40800
H1051       H  0.22074185  0.67743386  0.19532373     0.40400
H1052       H  0.19228295  0.65647315  0.15691025     0.35300
C1053       C  0.37450247  0.56111753  0.48684524    -0.26500
C1054       C  0.39252666  0.59895744  0.48188605    -0.14500
C1055       C  0.42980487  0.61918230  0.47343822     0.36100
C1056       C  0.44780556  0.60037333  0.46612217    -0.25900
C1057       C  0.42922713  0.56193432  0.46816732    -0.15100
C1058       C  0.39258257  0.54220763  0.48072904     0.37200
N1059       N  0.37326749  0.50298911  0.48526630    -0.89400
H1060       H  0.34598910  0.54632135  0.49433717     0.18300
H1061       H  0.47608803  0.61562377  0.45768666     0.18300
N1062       N  0.44904132  0.65860598  0.97279377    -0.88400
H1063       H  0.34597004  0.99272523  0.49184489     0.35700
H1064       H  0.38442308  0.99766818  0.50923832     0.40800
H1065       H  0.43918628  0.66583866  0.94885438     0.40400
H1066       H  0.47660640  0.66939565  0.46704489     0.35300
C1067       C  0.42539108  0.83210496  0.01489042    -0.26500
C1068       C  0.42929701  0.81039107  0.48611351    -0.14500
C1069       C  0.45398297  0.82758849  0.45498576     0.36100
C1070       C  0.47136604  0.86574406  0.45142248    -0.25900
C1071       C  0.46607098  0.88705489  0.47937234    -0.15100
C1072       C  0.44364606  0.87028134  0.01204092     0.37200
N1073       N  0.43721355  0.89063124  0.04187902    -0.89400
H1074       H  0.40653862  0.81919311  0.03883567     0.18300
H1075       H  0.48800908  0.87864285  0.42596487     0.18300
N1076       N  0.46078886  0.80622475  0.42681788    -0.88400
H1077       H  0.41021075  0.88322925  0.03870787     0.35700
H1078       H  0.45323689  0.91900377  0.03803349     0.40800
H1079       H  0.47276473  0.79419307  0.44206013     0.40400
H1080       H  0.47953417  0.82315290  0.40576266     0.35300
C1081       C  0.15344112  0.60587938  0.47019125    -0.26500
C1082       C  0.13339737  0.56717146  0.46959416    -0.14500
C1083       C  0.15161061  0.54841381  0.47780769     0.36100
C1084       C  0.18950594  0.56895726  0.48449040    -0.25900
C1085       C  0.20921066  0.60746251  0.48318871    -0.15100
C1086       C  0.19089853  0.62621997  0.97634975     0.37200
N1087       N  0.20950575  0.66564498  0.97451250    -0.89400
H1088       H  0.14016197  0.62101936  0.96435311     0.18300
H1089       H  0.20402105  0.55500371  0.48938505     0.18300
N1090       N  0.13217902  0.50888897  0.47765464    -0.88400
H1091       H  0.20760165  0.67215312  0.94538818     0.35700
H1092       H  0.23705401  0.67821719  0.98131570     0.40800
H1093       H  0.11462203  0.50028942  0.50169971     0.40400
H1094       H  0.14997486  0.49968165  0.48243285     0.35300
C1095       C  0.37192956  0.68413623  0.33909443    -0.26500
C1096       C  0.34259273  0.68260840  0.31986145    -0.14500
C1097       C  0.31980846  0.69064736  0.34197323     0.36100
C1098       C  0.31960000  0.68784918  0.38274379    -0.25900
C1099       C  0.34415980  0.68100048  0.40181770    -0.15100
C1100       C  0.37424996  0.68548622  0.37989770     0.37200
N1101       N  0.40853233  0.69483266  0.39700436    -0.89400
H1102       H  0.39409376  0.68590532  0.32219544     0.18300
H1103       H  0.30157336  0.69322922  0.39970237     0.18300
N1104       N  0.29934895  0.70431225  0.32371255    -0.88400
H1105       H  0.41328989  0.67373219  0.39009465     0.35700
H1106       H  0.40978022  0.69889132  0.42746672     0.40800
H1107       H  0.31790348  0.72963395  0.31150117     0.40400
H1108       H  0.28461306  0.70943002  0.34466307     0.35300
C1109       C  0.37371430  0.68174520  0.08927989    -0.26500
C1110       C  0.34481340  0.68128703  0.06990048    -0.14500
C1111       C  0.32444577  0.69268188  0.09155197     0.36100
C1112       C  0.32625712  0.69358118  0.13239199    -0.25900
C1113       C  0.34860963  0.68410098  0.15214344    -0.15100
C1114       C  0.37652312  0.68393216  0.13028315     0.37200
N1115       N  0.40932063  0.68931665  0.14768738    -0.89400
H1116       H  0.39525409  0.68214618  0.07256420     0.18300
H1117       H  0.31032680  0.70234266  0.14851074     0.18300
N1118       N  0.30349007  0.70523850  0.07251057    -0.88400
H1119       H  0.41075841  0.66599867  0.14167362     0.35700
H1120       H  0.41076062  0.69392109  0.17813143     0.40800
H1121       H  0.31393931  0.73264664  0.08128003     0.40400
H1122       H  0.27680774  0.68980787  0.08264094     0.35300
C1123       C  0.34169564  0.67733432  0.94580988     0.29900
C1124       C  0.34217582  0.67767974  0.52576476     0.29900
C1125       C  0.35235241  0.65188757  0.96441440    -0.06300
C1126       C  0.36636832  0.71425286  0.96622675    -0.07100
C1127       C  0.30473477  0.66398679  0.96513282    -0.07000
C1128       C  0.35300962  0.65227868  0.50548588    -0.06300
C1129       C  0.36718429  0.71462458  0.50674988    -0.07100
C1130       C  0.30475875  0.66377259  0.50634094    -0.07000
C1131       C  0.36514780  0.62969540  0.51656086    -0.32400
N1132       N  0.37234589  0.61660527  0.98338541     0.14100
C1133       C  0.36360214  0.62885646  0.95139376    -0.32400
H1134       H  0.36695290  0.62269558  0.92110655     0.16100
C1135       C  0.39183997  0.75021013  0.51907341    -0.31400
N1136       N  0.40558548  0.77115149  0.48655099     0.12800
C1137       C  0.38951644  0.74929870  0.95408343    -0.31300
C1138       C  0.26922191  0.63988017  0.51748780    -0.31600
N1139       N  0.24803095  0.62752405  0.98469398     0.13400
H1140       H  0.25955345  0.63135938  0.54713216     0.16000
C1141       C  0.26938433  0.64064807  0.95265704    -0.31600
H1142       H  0.25976235  0.63264941  0.92249521     0.16000
H1143       H  0.39338837  0.75827592  0.92389514     0.16000
H1144       H  0.36994572  0.62414642  0.54617020     0.16100
H1145       H  0.39899429  0.76013815  0.54934644     0.16000
C1146       C  0.34520068  0.68031409  0.69621354     0.29900
C1147       C  0.34157636  0.67981902  0.77583232     0.29900
C1148       C  0.35090244  0.65141030  0.71589966    -0.06300
C1149       C  0.37207806  0.71642293  0.71760810    -0.07100
C1150       C  0.30820668  0.67075896  0.71342298    -0.07000
C1151       C  0.34957563  0.65154627  0.75689566    -0.06300
C1152       C  0.37016274  0.71628410  0.75807834    -0.07100
C1153       C  0.30615928  0.67005380  0.75446799    -0.07000
C1154       C  0.35842766  0.62658499  0.76955616    -0.32400
N1155       N  0.36517308  0.61156871  0.73740537     0.14100
C1156       C  0.35962639  0.62569820  0.70454639    -0.32400
H1157       H  0.36394583  0.61927978  0.67477082     0.16100
C1158       C  0.39278791  0.75208249  0.77170367    -0.31400
N1159       N  0.40891992  0.77362065  0.74014240     0.12800
C1160       C  0.39611359  0.75211180  0.70687481    -0.31300
C1161       C  0.26981821  0.64731799  0.76352426    -0.31600
N1162       N  0.24986543  0.63690047  0.72973695     0.13400
H1163       H  0.25882202  0.63755465  0.79249271     0.16000
C1164       C  0.27309406  0.64922111  0.69912609    -0.31600
H1165       H  0.26504800  0.64054911  0.66868220     0.16000
H1166       H  0.40203469  0.76214908  0.67707339     0.16000
H1167       H  0.36231711  0.62159889  0.79977631     0.16100
H1168       H  0.39573623  0.76204635  0.80197499     0.16000
O1169       O  0.07320646  0.51403617  0.95833197    -0.80300
O1170       O  0.47131208  0.55709855  0.92739814    -0.80300
O1171       O  0.05345808  0.59486950  0.89361670    -0.80300
O1172       O  0.46670533  0.98739934  0.50935938    -0.80200
O1173       O  0.00254187  0.57224699  0.85971073    -0.80400
O1174       O  0.02486935  0.01689919  0.50717606    -0.80300
O1175       O  0.43491962  0.51003591  0.96083089    -0.80300
O1176       O  0.08423746  0.56727276  0.93948198    -0.80300
C1177       C  0.09493943  0.54839821  0.95596896     1.05200
C1178       C  0.44669861  0.54260493  0.95229006     1.09300
C1179       C  0.03309120  0.59946286  0.87106061     1.09400
C1180       C  0.49667655  0.00562992  0.52750524     1.09300
O1181       O  0.51256632  0.94977805  0.98359265    -0.80300
O1182       O  0.48052139  0.49611082  0.84286670    -0.80400
O1183       O  0.06575912  0.00952526  0.88106951    -0.80300
O1184       O  0.43030461  0.96411064  0.89566807    -0.80300
O1185       O  0.42947614  0.01003744  0.86707716    -0.80300
O1186       O  0.01618472  0.96377711  0.90512379    -0.80300
O1187       O  0.46245770  0.93486743  0.94957686    -0.80200
O1188       O  0.03602611  0.53978380  0.83301900    -0.80300
Co1189     Co  0.01895117  0.99045741  0.95525482     1.51500
Co1190     Co  0.47560088  0.52449571  0.88865264     1.51700
Co1191     Co  0.05612237  0.55040167  0.88967982     1.51600
Co1192     Co  0.45598385  0.97955141  0.95002400     1.51500
O1193       O  0.00979740  0.52315407  0.92511503    -1.42200
C1194       C  0.48097156  0.92581852  0.97139777     1.09300
C1195       C  0.00574978  0.51453551  0.81872206     1.09400
C1196       C  0.04475626  0.97532681  0.88560014     1.09400
C1197       C  0.41247276  0.97670321  0.87812255     1.09300
O1198       O  0.07668117  0.51093031  0.72644007    -0.80300
O1199       O  0.47639851  0.56021132  0.69917703    -0.80300
O1200       O  0.06043048  0.56579052  0.61301780    -0.80300
O1201       O  0.47018201  0.98298363  0.75863952    -0.80200
O1202       O  0.03762563  0.58644568  0.65598665    -0.80400
O1203       O  0.02699475  0.02797126  0.75150443    -0.80300
O1204       O  0.43091498  0.50538773  0.71366380    -0.80300
O1205       O  0.07993070  0.54900465  0.68150940    -0.80300
C1206       C  0.09550658  0.54074429  0.70840758     1.09400
C1207       C  0.44545105  0.54009485  0.71419882     1.09300
C1208       C  0.06091379  0.59262479  0.63017367     1.09400
C1209       C  0.50046365  0.00841654  0.77406287     1.09300
O1210       O  0.50600167  0.95446457  0.73091669    -0.80300
O1211       O  0.49465373  0.53619435  0.58853814    -0.80400
O1212       O  0.07490673  0.01039842  0.61487449    -0.80300
O1213       O  0.42461605  0.95788651  0.64930050    -0.80300
O1214       O  0.43345917  0.01204026  0.63527051    -0.80300
O1215       O  0.04021793  0.97166514  0.66069967    -0.80300
O1216       O  0.46024418  0.93295975  0.69053555    -0.80200
O1217       O  0.00629599  0.49192037  0.59336968    -0.80300
Co1218     Co  0.03300517  0.00320581  0.70395786     1.51500
Co1219     Co  0.48681706  0.54673500  0.64674948     1.51700
Co1220     Co  0.03912010  0.51706001  0.63973222     1.51600
Co1221     Co  0.44978429  0.97196269  0.70098712     1.51500
O1222       O  0.99649699  0.50968899  0.67300168    -1.42200
C1223       C  0.47763566  0.92729419  0.71595171     1.09300
C1224       C  0.99848628  0.51101044  0.57202785     1.09400
C1225       C  0.06328181  0.98035740  0.63239448     1.09400
C1226       C  0.41362166  0.97714109  0.63412951     1.09300
C1227       C  0.16406882  0.85011050  0.81852447     0.29900
C1228       C  0.16235277  0.84556930  0.89841205     0.29900
C1229       C  0.14588476  0.86857241  0.84025710    -0.06300
C1230       C  0.14206027  0.81098826  0.83467457    -0.07100
C1231       C  0.20088905  0.86667605  0.83940302    -0.07000
C1232       C  0.14677038  0.86771275  0.88125796    -0.06300
C1233       C  0.14142025  0.80897361  0.87537341    -0.07100
C1234       C  0.20025804  0.86483332  0.88003553    -0.07000
C1235       C  0.13046303  0.88580518  0.89563678    -0.32400
N1236       N  0.11575467  0.89407573  0.86509589     0.14100
C1237       C  0.12498124  0.88331266  0.83105290    -0.32400
H1238       H  0.11593678  0.88462151  0.80178424     0.16100
C1239       C  0.11831377  0.77283567  0.88477998    -0.31400
N1240       N  0.10478451  0.75277373  0.85077398     0.12800
C1241       C  0.11906218  0.77565282  0.81986374    -0.31300
C1242       C  0.23592524  0.88319201  0.89285150    -0.31600
N1243       N  0.25773256  0.89467364  0.86088456     0.13400
H1244       H  0.24568034  0.88869145  0.92310146     0.16000
C1245       C  0.23663035  0.88485445  0.82796891    -0.31600
H1246       H  0.24654354  0.89046267  0.79801823     0.16000
H1247       H  0.11265697  0.76717717  0.78912028     0.16000
H1248       H  0.13006261  0.89268410  0.92638183     0.16100
H1249       H  0.11175812  0.76183242  0.91415956     0.16000
C1250       C  0.16548664  0.83911795  0.56821583     0.29900
C1251       C  0.16892111  0.84395313  0.64836867     0.29900
C1252       C  0.14377630  0.85468305  0.58811112    -0.06300
C1253       C  0.15195371  0.80282685  0.58925601    -0.07100
C1254       C  0.20358126  0.86491434  0.58615980    -0.07000
C1255       C  0.14485913  0.85623073  0.62916553    -0.06300
C1256       C  0.15270152  0.80496175  0.63004495    -0.07100
C1257       C  0.20509154  0.86668485  0.62707590    -0.07000
C1258       C  0.12659430  0.87323131  0.64144477    -0.32400
N1259       N  0.11629494  0.88375650  0.60919352     0.14100
C1260       C  0.12721118  0.87340376  0.57652268    -0.32400
H1261       H  0.12527204  0.88116039  0.54687411     0.16100
C1262       C  0.13787023  0.76949739  0.64278682    -0.31400
N1263       N  0.13182990  0.74660361  0.61120522     0.12800
C1264       C  0.13944845  0.76676624  0.57811960    -0.31300
C1265       C  0.24079301  0.88962097  0.63827930    -0.31600
N1266       N  0.26101883  0.90211657  0.60524016     0.13400
H1267       H  0.25148942  0.89602149  0.66817618     0.16000
C1268       C  0.23871982  0.88767872  0.57318207    -0.31600
H1269       H  0.24765107  0.89317046  0.54293171     0.16000
H1270       H  0.13720017  0.75639320  0.54815164     0.16000
H1271       H  0.12272282  0.87959478  0.67146257     0.16100
H1272       H  0.13152188  0.76093545  0.67300287     0.16000
C1273       C  0.17644515  0.82696550  0.75637466    -0.26500
C1274       C  0.16903968  0.85233953  0.77448477    -0.14500
C1275       C  0.17571664  0.88290802  0.75210522     0.36100
C1276       C  0.17638325  0.87996356  0.71113825    -0.25900
C1277       C  0.17340217  0.84871148  0.69261180    -0.15100
C1278       C  0.18090153  0.82644420  0.71571980     0.37200
N1279       N  0.19528252  0.80562783  0.69856030    -0.89400
H1280       H  0.18021710  0.80844586  0.77417245     0.18300
H1281       H  0.18091553  0.90296998  0.69382539     0.18300
N1282       N  0.18664613  0.91843902  0.76906748    -0.88400
H1283       H  0.19959969  0.79116546  0.72012869     0.35700
H1284       H  0.22069836  0.82428947  0.68693020     0.40800
H1285       H  0.19315698  0.92067988  0.79902747     0.40400
H1286       H  0.16591786  0.92367658  0.76470502     0.35300
C1287       C  0.13094400  0.82877043  0.00512870    -0.26500
C1288       C  0.16227412  0.83413617  0.52394434    -0.14500
C1289       C  0.18735751  0.83032890  0.00051461     0.36100
C1290       C  0.18633981  0.83363196  0.95989394    -0.25900
C1291       C  0.16062392  0.83971849  0.94223347    -0.15100
C1292       C  0.12957294  0.83084724  0.96430779     0.37200
N1293       N  0.09601260  0.82125130  0.94553601    -0.89400
H1294       H  0.10695200  0.82208064  0.52186787     0.18300
H1295       H  0.20492931  0.82979675  0.94206627     0.18300
N1296       N  0.21170890  0.81999701  0.51563085    -0.88400
H1297       H  0.08679712  0.83720492  0.95868778     0.35700
H1298       H  0.07699021  0.79380568  0.95170485     0.40800
H1299       H  0.20899589  0.81545430  0.54584084     0.40400
H1300       H  0.23844619  0.84120442  0.01023357     0.35300
C1301       C  0.10992775  0.65512222  0.64978132    -0.26500
C1302       C  0.08678620  0.63105019  0.62004035    -0.14500
C1303       C  0.08289109  0.64535781  0.58473569     0.36100
C1304       C  0.09906284  0.68360956  0.58146898    -0.25900
C1305       C  0.11981003  0.70792023  0.61278125    -0.15100
C1306       C  0.12754300  0.69339479  0.64600002     0.37200
N1307       N  0.15298296  0.71736075  0.67592318    -0.89400
H1308       H  0.11321303  0.64393991  0.67674505     0.18300
H1309       H  0.09368930  0.69401244  0.55520289     0.18300
N1310       N  0.06064760  0.62102882  0.55321729    -0.88400
H1311       H  0.17845047  0.73214551  0.66275935     0.35700
H1312       H  0.15524880  0.70221360  0.69832289     0.40800
H1313       H  0.07660139  0.62755105  0.52794267     0.40400
H1314       H  0.03986567  0.62603498  0.54761616     0.35300
C1315       C  0.35750413  0.97846680  0.62112559    -0.26500
C1316       C  0.37550120  0.95891234  0.61938637    -0.14500
C1317       C  0.35554226  0.92121020  0.60803836     0.36100
C1318       C  0.31798652  0.90357530  0.60094474    -0.25900
C1319       C  0.29991819  0.92269275  0.60507816    -0.15100
C1320       C  0.31996929  0.96076372  0.61426178     0.37200
N1321       N  0.30304004  0.98205840  0.61735879    -0.89400
H1322       H  0.37225889  0.50730369  0.62992448     0.18300
H1323       H  0.30228217  0.87433852  0.59393298     0.18300
N1324       N  0.37332941  0.90079615  0.60465116    -0.88400
H1325       H  0.30512429  0.49078142  0.64695293     0.35700
H1326       H  0.27537284  0.96612552  0.61035325     0.40800
H1327       H  0.39237478  0.91266589  0.58222912     0.40400
H1328       H  0.35494015  0.87353473  0.59566379     0.35300
C1329       C  0.11364130  0.96976692  0.61981530    -0.26500
C1330       C  0.07609645  0.95539837  0.62114346    -0.14500
C1331       C  0.05182908  0.91710795  0.61503907     0.36100
C1332       C  0.06550179  0.89392876  0.60969255    -0.25900
C1333       C  0.10293738  0.90821181  0.61027513    -0.15100
C1334       C  0.12726699  0.94640465  0.61458360     0.37200
N1335       N  0.16566965  0.96094111  0.61502450    -0.89400
H1336       H  0.13232943  0.99906140  0.62455222     0.18300
H1337       H  0.04689360  0.86452950  0.60593548     0.18300
N1338       N  0.01332048  0.90117606  0.61329084    -0.88400
H1339       H  0.18002868  0.98954407  0.61896971     0.35700
H1340       H  0.17263312  0.95551941  0.58719364     0.40800
H1341       H  0.00756465  0.91437991  0.59149930     0.40400
H1342       H  0.00453795  0.90566740  0.64039022     0.35300
C1343       C  0.09545988  0.69324859  0.82984674    -0.26500
C1344       C  0.08226951  0.71343771  0.84861788    -0.14500
C1345       C  0.04962090  0.69493131  0.86974311     0.36100
C1346       C  0.03161484  0.65665782  0.87369923    -0.25900
C1347       C  0.04642769  0.63689601  0.85766284    -0.15100
C1348       C  0.07816441  0.65510275  0.83472517     0.37200
N1349       N  0.09362985  0.63502756  0.81825952    -0.89400
H1350       H  0.12070246  0.70773404  0.81381093     0.18300
H1351       H  0.00744564  0.64280151  0.89157126     0.18300
N1352       N  0.03547328  0.71524655  0.88829527    -0.88400
H1353       H  0.11722104  0.65254959  0.80267525     0.35700
H1354       H  0.07501445  0.61580678  0.79767720     0.40800
H1355       H  0.03377377  0.71054276  0.91860633     0.40400
H1356       H  0.00916160  0.70477562  0.87742314     0.35300
C1357       C  0.31342447  0.89987781  0.88544736    -0.26500
C1358       C  0.29659559  0.91356623  0.86222900    -0.14500
C1359       C  0.31795114  0.94623513  0.84177538     0.36100
C1360       C  0.35580313  0.96550753  0.84588141    -0.25900
C1361       C  0.37291392  0.95271263  0.87034283    -0.15100
C1362       C  0.35134967  0.91891403  0.88970647     0.37200
N1363       N  0.36765559  0.90436633  0.91439010    -0.89400
H1364       H  0.29670292  0.87445037  0.90082187     0.18300
H1365       H  0.37173325  0.49137067  0.83089987     0.18300
N1366       N  0.30111486  0.96069592  0.81817432    -0.88400
H1367       H  0.34808460  0.87830029  0.92423270     0.35700
H1368       H  0.37792759  0.92141984  0.93962071     0.40800
H1369       H  0.31036970  0.96268339  0.78932838     0.40400
H1370       H  0.30958733  0.48739409  0.82914160     0.35300
C1371       C  0.05833972  0.92944815  0.90697798    -0.26500
C1372       C  0.05747342  0.94999615  0.87600592    -0.14500
C1373       C  0.07288527  0.94908691  0.83951116     0.36100
C1374       C  0.09192741  0.93060531  0.83640264    -0.25900
C1375       C  0.09412377  0.91106261  0.86828467    -0.15100
C1376       C  0.07509217  0.90911379  0.90319714     0.37200
N1377       N  0.07221483  0.88646096  0.93515779    -0.89400
H1378       H  0.04690617  0.93006386  0.93522508     0.18300
H1379       H  0.10532477  0.93197589  0.80890520     0.18300
N1380       N  0.06931882  0.96599737  0.80510445    -0.88400
H1381       H  0.04473249  0.86771974  0.94020884     0.35700
H1382       H  0.08324339  0.90327437  0.96052764     0.40800
H1383       H  0.05311454  0.97707686  0.81060622     0.40400
H1384       H  0.05562775  0.94537376  0.78343353     0.35300
C1385       C  0.36692637  0.55491502  0.73583133    -0.26500
C1386       C  0.38533328  0.59340422  0.73784731    -0.14500
C1387       C  0.42368212  0.61396816  0.73670873     0.36100
C1388       C  0.44256068  0.59567557  0.73180055    -0.25900
C1389       C  0.42436838  0.55713706  0.72767364    -0.15100
C1390       C  0.38591479  0.53644337  0.73082202     0.37200
N1391       N  0.36601686  0.49700246  0.72658987    -0.89400
H1392       H  0.33754872  0.53935452  0.73680604     0.18300
H1393       H  0.47186568  0.61207713  0.72970350     0.18300
N1394       N  0.44439349  0.65350950  0.73948785    -0.88400
H1395       H  0.33809082  0.48637518  0.72642797     0.35700
H1396       H  0.37165758  0.48677825  0.75153582     0.40800
H1397       H  0.42797607  0.66439230  0.74425328     0.40400
H1398       H  0.45704205  0.66316907  0.71234933     0.35300
C1399       C  0.41236828  0.83188280  0.75270333    -0.26500
C1400       C  0.42952651  0.81315104  0.74062827    -0.14500
C1401       C  0.46491725  0.83321587  0.72479470     0.36100
C1402       C  0.48151338  0.87129143  0.71976398    -0.25900
C1403       C  0.46304053  0.88936797  0.72891201    -0.15100
C1404       C  0.42833362  0.86963073  0.74611053     0.37200
N1405       N  0.40913482  0.88784550  0.75610524    -0.89400
H1406       H  0.38528979  0.81636141  0.76474971     0.18300
H1407       H  0.50820904  0.88642755  0.70673257     0.18300
N1408       N  0.48424569  0.81572682  0.71251481    -0.88400
H1409       H  0.38480720  0.86984040  0.77023168     0.35700
H1410       H  0.40184313  0.89471298  0.72977187     0.40800
H1411       H  0.46978400  0.78781974  0.71905889     0.40400
H1412       H  0.50823481  0.82760262  0.72918997     0.35300
C1413       C  0.19193476  0.58351628  0.75022967    -0.26500
C1414       C  0.21097552  0.61414594  0.72637953    -0.14500
C1415       C  0.19168613  0.62209251  0.69897122     0.36100
C1416       C  0.15405558  0.59810383  0.69454420    -0.25900
C1417       C  0.13486100  0.56645757  0.71735351    -0.15100
C1418       C  0.15440946  0.55971263  0.74607102     0.37200
N1419       N  0.13728627  0.52911208  0.77159338    -0.89400
H1420       H  0.20651860  0.57744629  0.77161937     0.18300
H1421       H  0.13983138  0.60407608  0.67260902     0.18300
N1422       N  0.21039818  0.65464452  0.67586846    -0.88400
H1423       H  0.12526005  0.50480807  0.75446847     0.35700
H1424       H  0.11772238  0.53108368  0.78772944     0.40800
H1425       H  0.22078468  0.67736271  0.69536766     0.40400
H1426       H  0.19235770  0.65640304  0.65693090     0.35300
C1427       C  0.37437053  0.56100599  0.98658177    -0.26500
C1428       C  0.39245598  0.59888492  0.98189574    -0.14500
C1429       C  0.42976495  0.61912688  0.97360779     0.36100
C1430       C  0.44776046  0.60032389  0.96620042    -0.25900
C1431       C  0.42914649  0.56186895  0.96803131    -0.15100
C1432       C  0.39244574  0.54209811  0.98040341     0.37200
N1433       N  0.37307785  0.50284692  0.98468408    -0.89400
H1434       H  0.34582244  0.54618697  0.99392221     0.18300
H1435       H  0.47607497  0.61559735  0.95788744     0.18300
N1436       N  0.44904965  0.65864890  0.47238102    -0.88400
H1437       H  0.34574898  0.99255866  0.99112587     0.35700
H1438       H  0.38409553  0.99736823  0.00867564     0.40800
H1439       H  0.43912356  0.66573313  0.44838624     0.40400
H1440       H  0.47660933  0.66936170  0.96752374     0.35300
C1441       C  0.42533391  0.83206357  0.51498810    -0.26500
C1442       C  0.42930932  0.81041879  0.98599234    -0.14500
C1443       C  0.45399010  0.82760640  0.95485577     0.36100
C1444       C  0.47142238  0.86577088  0.95131963    -0.25900
C1445       C  0.46617000  0.88709332  0.97929643    -0.15100
C1446       C  0.44354060  0.87023541  0.51211162     0.37200
N1447       N  0.43703626  0.89056539  0.54190411    -0.89400
H1448       H  0.40647206  0.81914075  0.53892366     0.18300
H1449       H  0.48807769  0.87867247  0.92586856     0.18300
N1450       N  0.46075112  0.80623007  0.92665857    -0.88400
H1451       H  0.41001333  0.88308814  0.53870038     0.35700
H1452       H  0.45300154  0.91893584  0.53802550     0.40800
H1453       H  0.47272500  0.79418099  0.94187338     0.40400
H1454       H  0.47948513  0.82315199  0.90559286     0.35300
C1455       C  0.15345648  0.60599002  0.97019525    -0.26500
C1456       C  0.13340760  0.56728250  0.96971268    -0.14500
C1457       C  0.15160990  0.54854411  0.97807491     0.36100
C1458       C  0.18950350  0.56909783  0.98476169    -0.25900
C1459       C  0.20921897  0.60759478  0.98331118    -0.15100
C1460       C  0.19088162  0.62610043  0.47635689     0.37200
N1461       N  0.20947846  0.66553394  0.47467055    -0.89400
H1462       H  0.14013961  0.62092006  0.46445093     0.18300
H1463       H  0.20401123  0.55515346  0.98976249     0.18300
N1464       N  0.13216870  0.50902230  0.97806874    -0.88400
H1465       H  0.20758913  0.67213463  0.44558267     0.35700
H1466       H  0.23702346  0.67809508  0.48148351     0.40800
H1467       H  0.11460427  0.50050396  0.00210536     0.40400
H1468       H  0.14995690  0.49982365  0.98295143     0.35300
C1469       C  0.37197416  0.68412045  0.83911799    -0.26500
C1470       C  0.34264038  0.68258497  0.81986992    -0.14500
C1471       C  0.31984031  0.69061028  0.84196444     0.36100
C1472       C  0.31959041  0.68777513  0.88272997    -0.25900
C1473       C  0.34415195  0.68094050  0.90182066    -0.15100
C1474       C  0.37426586  0.68545056  0.87992364     0.37200
N1475       N  0.40854056  0.69479756  0.89705857    -0.89400
H1476       H  0.39415054  0.68590304  0.82223191     0.18300
H1477       H  0.30154891  0.69314334  0.89967353     0.18300
N1478       N  0.29941749  0.70431151  0.82369202    -0.88400
H1479       H  0.41329402  0.67368745  0.89019408     0.35700
H1480       H  0.40978356  0.69888112  0.92751808     0.40800
H1481       H  0.31799756  0.72964740  0.81152580     0.40400
H1482       H  0.28465820  0.70940994  0.84462933     0.35300
C1483       C  0.37364247  0.68164430  0.58926639    -0.26500
C1484       C  0.34473026  0.68117629  0.56990159    -0.14500
C1485       C  0.32431400  0.69249251  0.59158391     0.36100
C1486       C  0.32614536  0.69338322  0.63242025    -0.25900
C1487       C  0.34852987  0.68393190  0.65214932    -0.15100
C1488       C  0.37644496  0.68378545  0.63026830     0.37200
N1489       N  0.40924256  0.68915152  0.64765109    -0.89400
H1490       H  0.39519775  0.68208736  0.57253992     0.18300
H1491       H  0.31020524  0.70212308  0.64855450     0.18300
N1492       N  0.30328273  0.70498025  0.57258246    -0.88400
H1493       H  0.41066535  0.66582668  0.64162295     0.35700
H1494       H  0.41070244  0.69376073  0.67809514     0.40800
H1495       H  0.31367062  0.73237190  0.58137506     0.40400
H1496       H  0.27660854  0.68948718  0.58272463     0.35300
C1497       C  0.84166845  0.17732874  0.44580056     0.29900
C1498       C  0.84222711  0.17772507  0.02576994     0.29900
C1499       C  0.85236201  0.15190811  0.46439659    -0.06300
C1500       C  0.86629538  0.21423955  0.46624888    -0.07100
C1501       C  0.80468896  0.16392277  0.46510294    -0.07000
C1502       C  0.85303322  0.15229718  0.00549822    -0.06300
C1503       C  0.86723533  0.21465346  0.00672553    -0.07100
C1504       C  0.80480049  0.16382319  0.00637023    -0.07000
C1505       C  0.86516824  0.12970924  0.01657232    -0.32400
N1506       N  0.87239428  0.11666040  0.48336537     0.14100
C1507       C  0.86365397  0.12891312  0.45137298    -0.32400
H1508       H  0.86702333  0.12276791  0.42108648     0.16100
C1509       C  0.89190662  0.25024215  0.01902291    -0.31400
N1510       N  0.90563461  0.27116896  0.98648734     0.12800
C1511       C  0.88943871  0.24929300  0.45413415    -0.31300
C1512       C  0.76926399  0.13997528  0.01755142    -0.31600
N1513       N  0.74797809  0.12743278  0.48461591     0.13400
H1514       H  0.75961042  0.13148774  0.04720708     0.16000
C1515       C  0.76934919  0.14058889  0.45259584    -0.31600
H1516       H  0.75974515  0.13262128  0.42242482     0.16000
H1517       H  0.89334271  0.25828844  0.42395118     0.16000
H1518       H  0.86999098  0.12418059  0.04618035     0.16100
H1519       H  0.89908211  0.26018141  0.04929003     0.16000
C1520       C  0.84522805  0.18036976  0.19620737     0.29900
C1521       C  0.84154640  0.17983813  0.27582135     0.29900
C1522       C  0.85088965  0.15143682  0.21589231    -0.06300
C1523       C  0.87211304  0.21645958  0.21762725    -0.07100
C1524       C  0.80822784  0.17083786  0.21338760    -0.07000
C1525       C  0.84952669  0.15155132  0.25688674    -0.06300
C1526       C  0.87016714  0.21630253  0.25809401    -0.07100
C1527       C  0.80615296  0.17011442  0.25443283    -0.07000
C1528       C  0.85836775  0.12658471  0.26955712    -0.32400
N1529       N  0.86515063  0.11159003  0.23741529     0.14100
C1530       C  0.85963465  0.12573647  0.20454995    -0.32400
H1531       H  0.86399183  0.11934006  0.17478075     0.16100
C1532       C  0.89279734  0.25209272  0.27174205    -0.31400
N1533       N  0.90896480  0.27364395  0.24019816     0.12800
C1534       C  0.89617597  0.25215008  0.20691853    -0.31300
C1535       C  0.76980737  0.14735932  0.26345688    -0.31600
N1536       N  0.74987353  0.13695035  0.22965729     0.13400
H1537       H  0.75879635  0.13756845  0.29241376     0.16000
C1538       C  0.77312124  0.14929913  0.19906359    -0.31600
H1539       H  0.76509569  0.14063922  0.16861317     0.16000
H1540       H  0.90211986  0.26220134  0.17712347     0.16000
H1541       H  0.86223336  0.12158799  0.29978143     0.16100
H1542       H  0.89571888  0.26204446  0.30201529     0.16000
O1543       O  0.57314000  0.01398036  0.45832293    -0.80300
O1544       O  0.97134062  0.05712593  0.42748146    -0.80300
O1545       O  0.55341871  0.09484615  0.39361205    -0.80300
O1546       O  0.96674312  0.48742296  0.00935547    -0.80200
O1547       O  0.50249117  0.07223833  0.35973034    -0.80400
O1548       O  0.52488896  0.51691059  0.00717322    -0.80300
O1549       O  0.93492002  0.01006178  0.46089213    -0.80300
O1550       O  0.58416810  0.06721830  0.43948703    -0.80300
C1551       C  0.59487720  0.04834006  0.45595017     1.05200
C1552       C  0.94673080  0.04264260  0.45237635     1.09300
C1553       C  0.53305227  0.09944686  0.37106070     1.09400
C1554       C  0.99670779  0.50564311  0.02751807     1.09300
O1555       O  0.01248766  0.44972548  0.48361187    -0.80300
O1556       O  0.98045236  0.99612540  0.34289830    -0.80400
O1557       O  0.56568307  0.50947257  0.38106500    -0.80300
O1558       O  0.93024739  0.46411671  0.39571275    -0.80300
O1559       O  0.92943266  0.51006498  0.36716261    -0.80300
O1560       O  0.51611126  0.46372181  0.40512401    -0.80300
O1561       O  0.96238883  0.43484254  0.44959141    -0.80200
O1562       O  0.53596287  0.03975226  0.33303044    -0.80300
Co1563     Co  0.51888857  0.49041748  0.45524439     1.51500
Co1564     Co  0.97556921  0.02450881  0.38870831     1.51700
Co1565     Co  0.55606260  0.05036238  0.38968162     1.51600
Co1566     Co  0.95594494  0.47954260  0.45005656     1.51500
O1567       O  0.50974100  0.02311919  0.42511030    -1.42200
C1568       C  0.98088321  0.42578035  0.47142674     1.09300
C1569       C  0.50567854  0.01452488  0.31873118     1.09400
C1570       C  0.54468253  0.47527300  0.38559889     1.09400
C1571       C  0.91242008  0.47672525  0.37819089     1.09300
O1572       O  0.57666389  0.01099124  0.22650502    -0.80300
O1573       O  0.97637165  0.06023847  0.19919668    -0.80300
O1574       O  0.56041478  0.06580461  0.11303797    -0.80300
O1575       O  0.97014803  0.48299189  0.25866882    -0.80200
O1576       O  0.53760371  0.08645436  0.15600649    -0.80400
O1577       O  0.52694250  0.52799264  0.25152210    -0.80300
O1578       O  0.93089275  0.00540859  0.21367870    -0.80300
O1579       O  0.57991272  0.04901696  0.18151269    -0.80300
C1580       C  0.59549368  0.04077593  0.20842334     1.09400
C1581       C  0.94542594  0.04011554  0.21422209     1.09300
C1582       C  0.56089631  0.09263803  0.13019790     1.09400
C1583       C  0.00042132  0.50842847  0.27410026     1.09300
O1584       O  0.00599682  0.45449718  0.23097479    -0.80300
O1585       O  0.99465879  0.03621592  0.08856120    -0.80400
O1586       O  0.57488908  0.51039388  0.11488844    -0.80300
O1587       O  0.92461491  0.45790142  0.14931902    -0.80300
O1588       O  0.93346481  0.51205803  0.13528838    -0.80300
O1589       O  0.54023312  0.47169812  0.16076037    -0.80300
O1590       O  0.96023666  0.43297181  0.19058859    -0.80200
O1591       O  0.50627567  0.99192484  0.09337539    -0.80300
Co1592     Co  0.53299185  0.50323727  0.20399558     1.51500
Co1593     Co  0.98680774  0.04675882  0.14677511     1.51700
Co1594     Co  0.53909743  0.01706413  0.13974275     1.51600
Co1595     Co  0.94977099  0.47197637  0.20101384     1.51500
O1596       O  0.49647805  0.00969493  0.17301430    -1.42200
C1597       C  0.97763273  0.42731811  0.21601308     1.09300
C1598       C  0.49848254  0.01102382  0.07202642     1.09400
C1599       C  0.56327532  0.48036685  0.13243549     1.09400
C1600       C  0.91362814  0.47716000  0.13414016     1.09300
C1601       C  0.66403422  0.35010109  0.31853247     0.29900
C1602       C  0.66227086  0.34550444  0.39841350     0.29900
C1603       C  0.64584294  0.36855362  0.34026688    -0.06300
C1604       C  0.64201151  0.31096706  0.33465034    -0.07100
C1605       C  0.70083992  0.36665344  0.33943151    -0.07000
C1606       C  0.64669397  0.36765808  0.38126901    -0.06300
C1607       C  0.64134801  0.30892443  0.37534626    -0.07100
C1608       C  0.70018753  0.36478546  0.38005983    -0.07000
C1609       C  0.63036366  0.38572935  0.39564654    -0.32400
N1610       N  0.61568887  0.39403075  0.36509730     0.14100
C1611       C  0.62495445  0.38330720  0.33105520    -0.32400
H1612       H  0.61594395  0.38464954  0.30178008     0.16100
C1613       C  0.61822758  0.27278104  0.38472175    -0.31400
N1614       N  0.60471655  0.25274235  0.35069954     0.12800
C1615       C  0.61901624  0.27564168  0.31980864    -0.31300
C1616       C  0.73585055  0.38316236  0.39289662    -0.31600
N1617       N  0.75767405  0.39468025  0.36094261     0.13400
H1618       H  0.74559043  0.38865053  0.42315235     0.16000
C1619       C  0.73658619  0.38486437  0.32801740    -0.31600
H1620       H  0.74651257  0.39050058  0.29807316     0.16000
H1621       H  0.61262944  0.26718699  0.28905819     0.16000
H1622       H  0.62992205  0.39257338  0.42639526     0.16100
H1623       H  0.61165021  0.26175727  0.41409149     0.16000
C1624       C  0.66551364  0.33915569  0.06824339     0.29900
C1625       C  0.66895464  0.34399425  0.14839565     0.29900
C1626       C  0.64378637  0.35470207  0.08814302    -0.06300
C1627       C  0.65200065  0.30286630  0.08928549    -0.07100
C1628       C  0.70360360  0.36496952  0.08618409    -0.07000
C1629       C  0.64487404  0.35625139  0.12919831    -0.06300
C1630       C  0.65274966  0.30500423  0.13007405    -0.07100
C1631       C  0.70512009  0.36674127  0.12709889    -0.07000
C1632       C  0.62660327  0.37324445  0.14148420    -0.32400
N1633       N  0.61629387  0.38376407  0.10923619     0.14100
C1634       C  0.62721329  0.37341772  0.07656202    -0.32400
H1635       H  0.62527158  0.38117707  0.04691580     0.16100
C1636       C  0.63790927  0.26954003  0.14282141    -0.31400
N1637       N  0.63186410  0.24663964  0.11124500     0.12800
C1638       C  0.63948999  0.26680153  0.07815583    -0.31300
C1639       C  0.74082280  0.38968696  0.13829413    -0.31600
N1640       N  0.76104014  0.40218709  0.10524933     0.13400
H1641       H  0.75152655  0.39608493  0.16818809     0.16000
C1642       C  0.73873567  0.38774377  0.07319765    -0.31600
H1643       H  0.74766070  0.39323258  0.04294515     0.16000
H1644       H  0.63723271  0.25642294  0.04818900     0.16000
H1645       H  0.62273911  0.37961038  0.17150396     0.16100
H1646       H  0.63154857  0.26098264  0.17303752     0.16000
C1647       C  0.67645291  0.32698675  0.25639323    -0.26500
C1648       C  0.66903631  0.35235378  0.27450001    -0.14500
C1649       C  0.67574111  0.38293797  0.25213315     0.36100
C1650       C  0.67642260  0.38000629  0.21116569    -0.25900
C1651       C  0.67344032  0.34875443  0.19263642    -0.15100
C1652       C  0.68093046  0.32648012  0.21574294     0.37200
N1653       N  0.69532190  0.30567153  0.19858819    -0.89400
H1654       H  0.68021433  0.30845972  0.27419044     0.18300
H1655       H  0.68095833  0.40301552  0.19385530     0.18300
N1656       N  0.68668125  0.41846631  0.26911160    -0.88400
H1657       H  0.69962980  0.29120272  0.22015656     0.35700
H1658       H  0.72074343  0.32433956  0.18697355     0.40800
H1659       H  0.69316313  0.42068331  0.29907860     0.40400
H1660       H  0.66596727  0.42372210  0.26473713     0.35300
C1661       C  0.63087980  0.32866759  0.50513380    -0.26500
C1662       C  0.66231860  0.33418338  0.02396877    -0.14500
C1663       C  0.68730176  0.33024751  0.50048914     0.36100
C1664       C  0.68625893  0.33353426  0.45986967    -0.25900
C1665       C  0.66053734  0.33962398  0.44222784    -0.15100
C1666       C  0.62949172  0.33074505  0.46431418     0.37200
N1667       N  0.59592669  0.32115413  0.44555768    -0.89400
H1668       H  0.60700416  0.32214263  0.02186353     0.18300
H1669       H  0.70484248  0.32969942  0.44202965     0.18300
N1670       N  0.71176577  0.32005798  0.01567965    -0.88400
H1671       H  0.58671744  0.33710886  0.45872063     0.35700
H1672       H  0.57690430  0.29370826  0.45172676     0.40800
H1673       H  0.70904363  0.31551239  0.04588870     0.40400
H1674       H  0.73839812  0.34113690  0.51018223     0.35300
C1675       C  0.60990794  0.15513390  0.14982240    -0.26500
C1676       C  0.58677000  0.13106839  0.12007467    -0.14500
C1677       C  0.58287171  0.14538709  0.08477982     0.36100
C1678       C  0.59906339  0.18364216  0.08151562    -0.25900
C1679       C  0.61981780  0.20794826  0.11282811    -0.15100
C1680       C  0.62752596  0.19340899  0.14605482     0.37200
N1681       N  0.65293934  0.21736364  0.17600347    -0.89400
H1682       H  0.61318341  0.14394381  0.17678555     0.18300
H1683       H  0.59369587  0.19405244  0.05525166     0.18300
N1684       N  0.56059877  0.12106630  0.05327168    -0.88400
H1685       H  0.67841752  0.23215127  0.16287081     0.35700
H1686       H  0.65518166  0.20220612  0.19841280     0.40800
H1687       H  0.57653331  0.12757963  0.02798273     0.40400
H1688       H  0.53982434  0.12609036  0.04769825     0.35300
C1689       C  0.85753761  0.47851612  0.12107166    -0.26500
C1690       C  0.87551567  0.45894111  0.11937858    -0.14500
C1691       C  0.85554508  0.42123456  0.10805251     0.36100
C1692       C  0.81798909  0.40360928  0.10096963    -0.25900
C1693       C  0.79993796  0.42274651  0.10507182    -0.15100
C1694       C  0.82000625  0.46082715  0.11419747     0.37200
N1695       N  0.80309880  0.48214635  0.11721847    -0.89400
H1696       H  0.87230117  0.00735892  0.12980705     0.18300
H1697       H  0.80227211  0.37436781  0.09398520     0.18300
N1698       N  0.87332018  0.40080768  0.10467364    -0.88400
H1699       H  0.80519347  0.99092884  0.14676730     0.35700
H1700       H  0.77543037  0.46621587  0.11022176     0.40800
H1701       H  0.89235357  0.41265323  0.08223501     0.40400
H1702       H  0.85491973  0.37354258  0.09571044     0.35300
C1703       C  0.61361853  0.46977245  0.11973055    -0.26500
C1704       C  0.57607591  0.45539300  0.12118961    -0.14500
C1705       C  0.55180690  0.41708650  0.11520735     0.36100
C1706       C  0.56548161  0.39390794  0.10987063    -0.25900
C1707       C  0.60292093  0.40820740  0.11032216    -0.15100
C1708       C  0.62724621  0.44641193  0.11449318     0.37200
N1709       N  0.66565285  0.46096727  0.11479287    -0.89400
H1710       H  0.63230898  0.49907915  0.12436636     0.18300
H1711       H  0.54687450  0.36449932  0.10621070     0.18300
N1712       N  0.51329271  0.40113596  0.11355806    -0.88400
H1713       H  0.68000841  0.48957766  0.11864505     0.35700
H1714       H  0.67252855  0.45547440  0.08694914     0.40800
H1715       H  0.50747699  0.41428235  0.09175330     0.40400
H1716       H  0.50456673  0.40568183  0.14066566     0.35300
C1717       C  0.59543175  0.19322386  0.32981564    -0.26500
C1718       C  0.58220430  0.21340718  0.34852097    -0.14500
C1719       C  0.54952721  0.19489701  0.36959404     0.36100
C1720       C  0.53154348  0.15662993  0.37359836    -0.25900
C1721       C  0.54639690  0.13687759  0.35764195    -0.15100
C1722       C  0.57814623  0.15508191  0.33472264     0.37200
N1723       N  0.59362639  0.13500773  0.31829377    -0.89400
H1724       H  0.62069094  0.20771189  0.31380951     0.18300
H1725       H  0.50735419  0.14277358  0.39143994     0.18300
N1726       N  0.53532634  0.21520536  0.38804285    -0.88400
H1727       H  0.61721837  0.15252607  0.30270936     0.35700
H1728       H  0.57501894  0.11577258  0.29771499     0.40800
H1729       H  0.53358392  0.21053220  0.41836226     0.40400
H1730       H  0.50902783  0.20470374  0.37711143     0.35300
C1731       C  0.81336892  0.39989834  0.38550977    -0.26500
C1732       C  0.79653775  0.41358974  0.36230161    -0.14500
C1733       C  0.81789168  0.44626432  0.34185404     0.36100
C1734       C  0.85574451  0.46554284  0.34596598    -0.25900
C1735       C  0.87285752  0.45274233  0.37041648    -0.15100
C1736       C  0.85129392  0.41893499  0.38976634     0.37200
N1737       N  0.86760086  0.40437541  0.41443047    -0.89400
H1738       H  0.79664919  0.37446348  0.40087275     0.18300
H1739       H  0.87167814  0.99140210  0.33097459     0.18300
N1740       N  0.80105428  0.46071966  0.31824539    -0.88400
H1741       H  0.84803088  0.37830339  0.42426017     0.35700
H1742       H  0.87787277  0.42141648  0.43966979     0.40800
H1743       H  0.81032282  0.46271913  0.28940298     0.40400
H1744       H  0.80951681  0.98739816  0.32917712     0.35300
C1745       C  0.55822692  0.42935366  0.40695119    -0.26500
C1746       C  0.55740134  0.44994342  0.37599799    -0.14500
C1747       C  0.57286213  0.44908128  0.33952048     0.36100
C1748       C  0.59190734  0.43060323  0.33641532    -0.25900
C1749       C  0.59405120  0.41100962  0.36827588    -0.15100
C1750       C  0.57496549  0.40900558  0.40315972     0.37200
N1751       N  0.57202032  0.38628175  0.43507625    -0.89400
H1752       H  0.54677598  0.42994997  0.43519282     0.18300
H1753       H  0.60534821  0.43201612  0.30893772     0.18300
N1754       N  0.56935206  0.46604598  0.30512927    -0.88400
H1755       H  0.54452700  0.36753722  0.44006160     0.35700
H1756       H  0.58300724  0.40304196  0.46048768     0.40800
H1757       H  0.55312992  0.47710715  0.31061743     0.40400
H1758       H  0.55570393  0.44545703  0.28341461     0.35300
C1759       C  0.86689326  0.05493048  0.23580845    -0.26500
C1760       C  0.88530480  0.09341843  0.23788350    -0.14500
C1761       C  0.92365741  0.11397671  0.23683051     0.36100
C1762       C  0.94253565  0.09568286  0.23191626    -0.25900
C1763       C  0.92433926  0.05714917  0.22771437    -0.15100
C1764       C  0.88588112  0.03645740  0.23080910     0.37200
N1765       N  0.86598056  0.99701901  0.22653522    -0.89400
H1766       H  0.83751369  0.03937356  0.23672957     0.18300
H1767       H  0.97184488  0.11208055  0.22987482     0.18300
N1768       N  0.94437381  0.15351427  0.23970217    -0.88400
H1769       H  0.83805466  0.98639508  0.22635767     0.35700
H1770       H  0.87159975  0.98677062  0.25147548     0.40800
H1771       H  0.92795267  0.16439376  0.24446068     0.40400
H1772       H  0.95707581  0.16322715  0.21259877     0.35300
C1773       C  0.91238354  0.33189212  0.25275977    -0.26500
C1774       C  0.92956147  0.31317558  0.24070171    -0.14500
C1775       C  0.96496154  0.33325761  0.22489481     0.36100
C1776       C  0.98154378  0.37133240  0.21986358    -0.25900
C1777       C  0.96304878  0.38939261  0.22898266    -0.15100
C1778       C  0.92833599  0.36963930  0.24616755     0.37200
N1779       N  0.90911965  0.38783733  0.25615428    -0.89400
H1780       H  0.88530005  0.31635886  0.26479163     0.18300
H1781       H  0.00824902  0.38648068  0.20685695     0.18300
N1782       N  0.98431498  0.31578704  0.21264483    -0.88400
H1783       H  0.88478630  0.36981962  0.27026363     0.35700
H1784       H  0.90183780  0.39471122  0.22981868     0.40800
H1785       H  0.96986078  0.28788004  0.21919011     0.40400
H1786       H  0.00829420  0.32767475  0.22933882     0.35300
C1787       C  0.69196463  0.08351392  0.25011023    -0.26500
C1788       C  0.71098585  0.11416473  0.22628383    -0.14500
C1789       C  0.69167618  0.12211719  0.19891027     0.36100
C1790       C  0.65404026  0.09813097  0.19451658    -0.25900
C1791       C  0.63486089  0.06647893  0.21732276    -0.15100
C1792       C  0.65443616  0.05971224  0.24598358     0.37200
N1793       N  0.63733686  0.02909303  0.27148326    -0.89400
H1794       H  0.70656568  0.07743370  0.27146614     0.18300
H1795       H  0.63979827  0.10411269  0.17261391     0.18300
N1796       N  0.71037145  0.15467462  0.17581387    -0.88400
H1797       H  0.62527486  0.00479921  0.25433868     0.35700
H1798       H  0.61780425  0.03106797  0.28767962     0.40800
H1799       H  0.72077865  0.17738882  0.19532059     0.40400
H1800       H  0.69231513  0.15644143  0.15690947     0.35300
C1801       C  0.87444836  0.06108878  0.48669691    -0.26500
C1802       C  0.89251241  0.09895060  0.48189242    -0.14500
C1803       C  0.92980979  0.11918471  0.47354709     0.36100
C1804       C  0.94780967  0.10037826  0.46620240    -0.25900
C1805       C  0.92920651  0.06192950  0.46812616    -0.15100
C1806       C  0.89252417  0.04217822  0.48055893     0.37200
N1807       N  0.87317115  0.00293906  0.48493669    -0.89400
H1808       H  0.84591218  0.04628117  0.49408955     0.18300
H1809       H  0.97611335  0.11564029  0.45784760     0.18300
N1810       N  0.94904074  0.15864011  0.97248770    -0.88400
H1811       H  0.84587952  0.49268674  0.49148906     0.35700
H1812       H  0.88427264  0.49755657  0.50897524     0.40800
H1813       H  0.93912403  0.16576688  0.94851870     0.40400
H1814       H  0.97663437  0.16941029  0.46732040     0.35300
C1815       C  0.92544978  0.33209111  0.01495123    -0.26500
C1816       C  0.92920019  0.31038934  0.48608051    -0.14500
C1817       C  0.95393268  0.32756976  0.45498846     0.36100
C1818       C  0.97135711  0.36572824  0.45142692    -0.25900
C1819       C  0.96605300  0.38705478  0.47934667    -0.15100
C1820       C  0.94367854  0.37026566  0.01209357     0.37200
N1821       N  0.93724904  0.39060571  0.04194583    -0.89400
H1822       H  0.90662125  0.31917597  0.03891510     0.18300
H1823       H  0.98803791  0.37861660  0.42599108     0.18300
N1824       N  0.96074498  0.30618642  0.42685501    -0.88400
H1825       H  0.91022887  0.38315715  0.03881813     0.35700
H1826       H  0.95322899  0.41897695  0.03807528     0.40800
H1827       H  0.97269890  0.29414979  0.44213002     0.40400
H1828       H  0.97950983  0.32310119  0.40580766     0.35300
C1829       C  0.65341560  0.10592299  0.47010074    -0.26500
C1830       C  0.63335489  0.06721630  0.46965006    -0.14500
C1831       C  0.65154929  0.04846942  0.47800839     0.36100
C1832       C  0.68944507  0.06901471  0.48467553    -0.25900
C1833       C  0.70916848  0.10751065  0.48320947    -0.15100
C1834       C  0.69090538  0.12618778  0.97640453     0.37200
N1835       N  0.70950693  0.16561901  0.97467621    -0.89400
H1836       H  0.64016864  0.12099875  0.96443126     0.18300
H1837       H  0.70394648  0.05506480  0.48968245     0.18300
N1838       N  0.63209592  0.00894770  0.47802754    -0.88400
H1839       H  0.70764400  0.17219488  0.94556952     0.35700
H1840       H  0.73704615  0.17818246  0.98152231     0.40800
H1841       H  0.61454221  0.00044870  0.50207326     0.40400
H1842       H  0.64987834  0.99974217  0.48291149     0.35300
C1843       C  0.87193795  0.18413260  0.33910370    -0.26500
C1844       C  0.84259813  0.18259067  0.31986076    -0.14500
C1845       C  0.81979473  0.19060799  0.34196214     0.36100
C1846       C  0.81956535  0.18779070  0.38273005    -0.25900
C1847       C  0.84413201  0.18095832  0.40181271    -0.15100
C1848       C  0.87424338  0.18547633  0.37990800     0.37200
N1849       N  0.90853007  0.19485323  0.39703201    -0.89400
H1850       H  0.89411291  0.18591689  0.32221271     0.18300
H1851       H  0.80152633  0.19315712  0.39968187     0.18300
N1852       N  0.79934522  0.20428120  0.32369539    -0.88400
H1853       H  0.91330590  0.17375985  0.39015764     0.35700
H1854       H  0.90977539  0.19893735  0.42749157     0.40800
H1855       H  0.81790789  0.22961672  0.31151595     0.40400
H1856       H  0.78458489  0.20937307  0.34463737     0.35300
C1857       C  0.87370009  0.18169805  0.08927362    -0.26500
C1858       C  0.84480204  0.18125263  0.06990349    -0.14500
C1859       C  0.82441942  0.19261776  0.09157377     0.36100
C1860       C  0.82623681  0.19350251  0.13241047    -0.25900
C1861       C  0.84858804  0.18401238  0.15214686    -0.15100
C1862       C  0.87649915  0.18384767  0.13027688     0.37200
N1863       N  0.90928857  0.18920446  0.14767196    -0.89400
H1864       H  0.89524453  0.18211515  0.07255127     0.18300
H1865       H  0.81030858  0.20226061  0.14853933     0.18300
N1866       N  0.80343642  0.20515565  0.07255863    -0.88400
H1867       H  0.91071095  0.16588010  0.14163986     0.35700
H1868       H  0.91073337  0.19380000  0.17811779     0.40800
H1869       H  0.81386204  0.23255464  0.08134824     0.40400
H1870       H  0.77675666  0.18969829  0.08269263     0.35300
C1871       C  0.84169842  0.17734951  0.94581253     0.29900
C1872       C  0.84215704  0.17767955  0.52576154     0.29900
C1873       C  0.85232694  0.15187334  0.96440273    -0.06300
C1874       C  0.86639417  0.21425401  0.96624440    -0.07100
C1875       C  0.80474187  0.16402764  0.96513463    -0.07000
C1876       C  0.85304732  0.15231945  0.50549204    -0.06300
C1877       C  0.86711223  0.21462818  0.50673297    -0.07100
C1878       C  0.80472742  0.16370578  0.50633565    -0.07000
C1879       C  0.86517724  0.12973050  0.51657223    -0.32400
N1880       N  0.87236944  0.11662759  0.98336211     0.14100
C1881       C  0.86360935  0.12887013  0.95137472    -0.32400
H1882       H  0.86698035  0.12273122  0.92108660     0.16100
C1883       C  0.89174239  0.25022116  0.51904875    -0.31400
N1884       N  0.90547647  0.27115420  0.48652138     0.12800
C1885       C  0.88955573  0.24929978  0.95411375    -0.31300
C1886       C  0.76918282  0.13988781  0.51750029    -0.31600
N1887       N  0.74804287  0.12749300  0.98468142     0.13400
H1888       H  0.75950895  0.13140862  0.54715178     0.16000
C1889       C  0.76939913  0.14065276  0.95265282    -0.31600
H1890       H  0.75978665  0.13265300  0.92248838     0.16000
H1891       H  0.89342334  0.25828627  0.92392955     0.16000
H1892       H  0.86996456  0.12417509  0.54618314     0.16100
H1893       H  0.89890138  0.26015743  0.54931884     0.16000
C1894       C  0.84517622  0.18037807  0.69620561     0.29900
C1895       C  0.84153598  0.17984565  0.77582502     0.29900
C1896       C  0.85086311  0.15145617  0.71587449    -0.06300
C1897       C  0.87205432  0.21647334  0.71761940    -0.07100
C1898       C  0.80818371  0.17083077  0.71341090    -0.07000
C1899       C  0.84952724  0.15157103  0.75686975    -0.06300
C1900       C  0.87013406  0.21631489  0.75808950    -0.07100
C1901       C  0.80612874  0.17010891  0.75445657    -0.07000
C1902       C  0.85837546  0.12659922  0.76951099    -0.32400
N1903       N  0.86512454  0.11159481  0.73734995     0.14100
C1904       C  0.85958853  0.12574761  0.70450298    -0.32400
H1905       H  0.86391658  0.11934797  0.67472271     0.16100
C1906       C  0.89276558  0.25210485  0.77173464    -0.31400
N1907       N  0.90890154  0.27365693  0.74018434     0.12800
C1908       C  0.89609363  0.25216577  0.70690510    -0.31300
C1909       C  0.76978534  0.14738040  0.76350263    -0.31600
N1910       N  0.74983767  0.13697672  0.72971179     0.13400
H1911       H  0.75878482  0.13760565  0.79246679     0.16000
C1912       C  0.77307321  0.14930333  0.69910636    -0.31600
H1913       H  0.76503512  0.14063374  0.66866062     0.16000
H1914       H  0.90201982  0.26221761  0.67710951     0.16000
H1915       H  0.86226014  0.12159885  0.79972717     0.16100
H1916       H  0.89571801  0.26205411  0.80201251     0.16000
O1917       O  0.57321166  0.01403018  0.95825850    -0.80300
O1918       O  0.97135724  0.05711674  0.92746517    -0.80300
O1919       O  0.55345990  0.09488222  0.89361434    -0.80300
O1920       O  0.96673581  0.48742960  0.50934563    -0.80200
O1921       O  0.50255146  0.07226779  0.85969415    -0.80400
O1922       O  0.52483675  0.51691178  0.50717636    -0.80300
O1923       O  0.93493552  0.01005431  0.96087904    -0.80300
O1924       O  0.58426101  0.06727785  0.93942741    -0.80300
C1925       C  0.59495657  0.04838949  0.95589475     1.05200
C1926       C  0.94674372  0.04263440  0.95235845     1.09300
C1927       C  0.53309684  0.09948390  0.87106267     1.09400
C1928       C  0.99670742  0.50562953  0.52749815     1.09300
O1929       O  0.01254601  0.44977089  0.98365136    -0.80300
O1930       O  0.98050111  0.99612155  0.84289302    -0.80400
O1931       O  0.56574059  0.50953298  0.88099747    -0.80300
O1932       O  0.93028988  0.46411251  0.89570865    -0.80300
O1933       O  0.92947408  0.51005311  0.86714051    -0.80300
O1934       O  0.51616507  0.46378683  0.90505348    -0.80300
O1935       O  0.96245143  0.43485652  0.94960047    -0.80200
O1936       O  0.53601728  0.03981662  0.83298278    -0.80300
Co1937     Co  0.51895290  0.49045604  0.95520247     1.51500
Co1938     Co  0.97560421  0.02450282  0.88869910     1.51700
Co1939     Co  0.55612062  0.05041721  0.88964058     1.51600
Co1940     Co  0.95597580  0.47954073  0.95005833     1.51500
O1941       O  0.50980140  0.02317345  0.92508955    -1.42200
C1942       C  0.98095824  0.42580823  0.97143660     1.09300
C1943       C  0.50575116  0.01454296  0.81869352     1.09400
C1944       C  0.54473174  0.47533505  0.88551959     1.09400
C1945       C  0.91246123  0.47671993  0.87818640     1.09300
O1946       O  0.57667597  0.01092752  0.72641695    -0.80300
O1947       O  0.97636337  0.06022030  0.69915714    -0.80300
O1948       O  0.56042022  0.06578174  0.61300010    -0.80300
O1949       O  0.97017913  0.48300971  0.75866335    -0.80200
O1950       O  0.53763511  0.08644255  0.65598646    -0.80400
O1951       O  0.52699366  0.52795526  0.75147269    -0.80300
O1952       O  0.93088855  0.00539992  0.71366248    -0.80300
O1953       O  0.57990732  0.04900092  0.68149451    -0.80300
C1954       C  0.59548969  0.04074736  0.70838940     1.09400
C1955       C  0.94541173  0.04010502  0.71417210     1.09300
C1956       C  0.56091453  0.09261817  0.63016401     1.09400
C1957       C  0.00046679  0.50842708  0.77408865     1.09300
O1958       O  0.00601460  0.45449040  0.73095389    -0.80300
O1959       O  0.99466318  0.03619913  0.58853465    -0.80400
O1960       O  0.57490702  0.51039190  0.61485219    -0.80300
O1961       O  0.92461946  0.45788163  0.64932737    -0.80300
O1962       O  0.93345543  0.51202294  0.63525847    -0.80300
O1963       O  0.54021406  0.47165566  0.66067048    -0.80300
O1964       O  0.96023885  0.43296612  0.69059376    -0.80200
O1965       O  0.50628145  0.99191775  0.59335973    -0.80300
Co1966     Co  0.53300276  0.50318863  0.70392992     1.51500
Co1967     Co  0.98680410  0.04673493  0.64674233     1.51700
Co1968     Co  0.53910908  0.01705372  0.63971599     1.51600
Co1969     Co  0.94978294  0.47197580  0.70101350     1.51500
O1970       O  0.49649129  0.00968091  0.67298374    -1.42200
C1971       C  0.97764037  0.42731640  0.71601216     1.09300
C1972       C  0.49846347  0.01100826  0.57202944     1.09400
C1973       C  0.56328042  0.48034956  0.63237036     1.09400
C1974       C  0.91361436  0.47712344  0.63414882     1.09300
C1975       C  0.66406818  0.35013215  0.81853439     0.29900
C1976       C  0.66233284  0.34559330  0.89842095     0.29900
C1977       C  0.64588122  0.36859594  0.84025313    -0.06300
C1978       C  0.64205228  0.31101128  0.83468542    -0.07100
C1979       C  0.70088390  0.36669902  0.83942229    -0.07000
C1980       C  0.64675663  0.36773768  0.88125498    -0.06300
C1981       C  0.64140195  0.30899691  0.87538363    -0.07100
C1982       C  0.70024145  0.36485778  0.88005459    -0.07000
C1983       C  0.63046401  0.38584779  0.89561948    -0.32400
N1984       N  0.61577069  0.39412556  0.86506873     0.14100
C1985       C  0.62499581  0.38335180  0.83103345    -0.32400
H1986       H  0.61596203  0.38466402  0.80176026     0.16100
C1987       C  0.61827613  0.27286117  0.88478891    -0.31400
N1988       N  0.60474880  0.25280177  0.85078156     0.12800
C1989       C  0.61904389  0.27567926  0.81987277    -0.31300
C1990       C  0.73590362  0.38322269  0.89288545    -0.31600
N1991       N  0.75772039  0.39470631  0.86092720     0.13400
H1992       H  0.74564819  0.38872273  0.92313963     0.16000
C1993       C  0.73662944  0.38488429  0.82800206    -0.31600
H1994       H  0.74655359  0.39049745  0.79805571     0.16000
H1995       H  0.61264715  0.26720387  0.78912831     0.16000
H1996       H  0.63006747  0.39273635  0.92636174     0.16100
H1997       H  0.61170874  0.26185690  0.91416752     0.16000
C1998       C  0.66548532  0.33911322  0.56823282     0.29900
C1999       C  0.66887946  0.34391783  0.64838626     0.29900
C2000       C  0.64373075  0.35463114  0.58812156    -0.06300
C2001       C  0.65197847  0.30281968  0.58926100    -0.07100
C2002       C  0.70356476  0.36493825  0.58619945    -0.07000
C2003       C  0.64479495  0.35616428  0.62917714    -0.06300
C2004       C  0.65270502  0.30493891  0.63005037    -0.07100
C2005       C  0.70505403  0.36668947  0.62711518    -0.07000
C2006       C  0.62653661  0.37317218  0.64145294    -0.32400
N2007       N  0.61626206  0.38371906  0.60920011     0.14100
C2008       C  0.62718609  0.37337116  0.57653133    -0.32400
H2009       H  0.62527265  0.38114837  0.54688441     0.16100
C2010       C  0.63787946  0.26947178  0.64278060    -0.31400
N2011       N  0.63186217  0.24659334  0.61119307     0.12800
C2012       C  0.63949041  0.26676476  0.57811353    -0.31300
C2013       C  0.74074701  0.38963374  0.63834437    -0.31600
N2014       N  0.76098923  0.40215898  0.60532059     0.13400
H2015       H  0.75142844  0.39600644  0.66824771     0.16000
C2016       C  0.73870783  0.38772816  0.57324738    -0.31600
H2017       H  0.74765680  0.39322593  0.54300328     0.16000
H2018       H  0.63724921  0.25639805  0.54814364     0.16000
H2019       H  0.62266488  0.37953676  0.67147026     0.16100
H2020       H  0.63151370  0.26089339  0.67299066     0.16000
C2021       C  0.67643795  0.32696900  0.75639758    -0.26500
C2022       C  0.66904071  0.35235194  0.77449769    -0.14500
C2023       C  0.67570675  0.38290829  0.75210458     0.36100
C2024       C  0.67634649  0.37993859  0.71113944    -0.25900
C2025       C  0.67335075  0.34867405  0.69262738    -0.15100
C2026       C  0.68086532  0.32642027  0.71574103     0.37200
N2027       N  0.69524009  0.30559680  0.69858541    -0.89400
H2028       H  0.68021940  0.30845964  0.77420302     0.18300
H2029       H  0.68087215  0.40293645  0.69381491     0.18300
N2030       N  0.68665030  0.41844958  0.76904791    -0.88400
H2031       H  0.69957871  0.29115388  0.72016064     0.35700
H2032       H  0.72064301  0.32425033  0.68692592     0.40800
H2033       H  0.69315131  0.42069726  0.79901046     0.40400
H2034       H  0.66593233  0.42370002  0.76466689     0.35300
C2035       C  0.63092538  0.32875516  0.00513931    -0.26500
C2036       C  0.66229395  0.33413987  0.52395898    -0.14500
C2037       C  0.68732446  0.33029056  0.00049630     0.36100
C2038       C  0.68630832  0.33361993  0.95988152    -0.25900
C2039       C  0.66060509  0.33973787  0.94224055    -0.15100
C2040       C  0.62955821  0.33086895  0.96432247     0.37200
N2041       N  0.59600675  0.32131742  0.94556137    -0.89400
H2042       H  0.60696107  0.32205401  0.52186414     0.18300
H2043       H  0.70488990  0.32978227  0.94204144     0.18300
N2044       N  0.71177596  0.32006220  0.51568186    -0.88400
H2045       H  0.58681339  0.33728037  0.95873843     0.35700
H2046       H  0.57696618  0.29387108  0.95170803     0.40800
H2047       H  0.70906797  0.31553484  0.54589490     0.40400
H2048       H  0.73839834  0.34111586  0.01019643     0.35300
C2049       C  0.60996409  0.15510914  0.64974493    -0.26500
C2050       C  0.58678559  0.13104016  0.62002349    -0.14500
C2051       C  0.58285570  0.14534904  0.58473823     0.36100
C2052       C  0.59904477  0.18360146  0.58146820    -0.25900
C2053       C  0.61983360  0.20790945  0.61276114    -0.15100
C2054       C  0.62758817  0.19338269  0.64596132     0.37200
N2055       N  0.65305182  0.21734763  0.67586834    -0.89400
H2056       H  0.61326738  0.14392586  0.67669756     0.18300
H2057       H  0.59364915  0.19400935  0.55522064     0.18300
N2058       N  0.56055498  0.12102114  0.55324892    -0.88400
H2059       H  0.67851238  0.23213737  0.66267798     0.35700
H2060       H  0.65533866  0.20220233  0.69824810     0.40800
H2061       H  0.57646899  0.12752504  0.52794398     0.40400
H2062       H  0.53977889  0.12604749  0.54769926     0.35300
C2063       C  0.85751615  0.47847530  0.62108270    -0.26500
C2064       C  0.87547999  0.45888395  0.61943917    -0.14500
C2065       C  0.85547339  0.42114600  0.60823554     0.36100
C2066       C  0.81791653  0.40353068  0.60116605    -0.25900
C2067       C  0.79988859  0.42269651  0.60518111    -0.15100
C2068       C  0.81997707  0.46078804  0.61424929     0.37200
N2069       N  0.80308272  0.48211981  0.61726666    -0.89400
H2070       H  0.87228673  0.00732748  0.62980389     0.18300
H2071       H  0.80217935  0.37427591  0.59425585     0.18300
N2072       N  0.87320920  0.40067351  0.60497778    -0.88400
H2073       H  0.80518464  0.99089687  0.64688121     0.35700
H2074       H  0.77540809  0.46619147  0.61029257     0.40800
H2075       H  0.89223169  0.41242748  0.58251894     0.40400
H2076       H  0.85478208  0.37338636  0.59610887     0.35300
C2077       C  0.61363237  0.46974780  0.61978294    -0.26500
C2078       C  0.57608914  0.45538505  0.62112487    -0.14500
C2079       C  0.55181562  0.41709049  0.61505954     0.36100
C2080       C  0.56548109  0.39390515  0.60972470    -0.25900
C2081       C  0.60291493  0.40818308  0.61028229    -0.15100
C2082       C  0.62725176  0.44637783  0.61456791     0.37200
N2083       N  0.66565251  0.46090833  0.61500815    -0.89400
H2084       H  0.63232514  0.49904419  0.62449927     0.18300
H2085       H  0.54686795  0.36450403  0.60599556     0.18300
N2086       N  0.51330613  0.40115802  0.61334157    -0.88400
H2087       H  0.68001747  0.48951322  0.61894902     0.35700
H2088       H  0.67261466  0.45547873  0.58717628     0.40800
H2089       H  0.50753420  0.41435024  0.59155136     0.40400
H2090       H  0.50454064  0.40565797  0.64044816     0.35300
C2091       C  0.59551193  0.19330044  0.82993508    -0.26500
C2092       C  0.58225666  0.21346499  0.84862199    -0.14500
C2093       C  0.54957131  0.19493801  0.86968043     0.36100
C2094       C  0.53158026  0.15666400  0.87364066    -0.25900
C2095       C  0.54644624  0.13692488  0.85767692    -0.15100
C2096       C  0.57823715  0.15515939  0.83482550     0.37200
N2097       N  0.59377677  0.13511767  0.81846343    -0.89400
H2098       H  0.62078798  0.20780503  0.81396089     0.18300
H2099       H  0.50737805  0.14279072  0.89146176     0.18300
N2100       N  0.53536974  0.21523289  0.88816118    -0.88400
H2101       H  0.61740402  0.15265940  0.80294126     0.35700
H2102       H  0.57522482  0.11588844  0.79784409     0.40800
H2103       H  0.53362258  0.21053249  0.91847485     0.40400
H2104       H  0.50907247  0.20474148  0.87723144     0.35300
C2105       C  0.81340532  0.39990166  0.88549592    -0.26500
C2106       C  0.79658212  0.41360406  0.86228974    -0.14500
C2107       C  0.81794023  0.44629422  0.84187280     0.36100
C2108       C  0.85579043  0.46556736  0.84599298    -0.25900
C2109       C  0.87289742  0.45274918  0.87042768    -0.15100
C2110       C  0.85132927  0.41894023  0.88977140     0.37200
N2111       N  0.86762992  0.40438389  0.91445028    -0.89400
H2112       H  0.79667992  0.37446098  0.90084715     0.18300
H2113       H  0.87172783  0.99145473  0.83103328     0.18300
N2114       N  0.80110827  0.46076935  0.81828661    -0.88400
H2115       H  0.84805601  0.37831679  0.92428737     0.35700
H2116       H  0.87790225  0.42143291  0.93968440     0.40800
H2117       H  0.81038559  0.46279551  0.78944543     0.40400
H2118       H  0.80956657  0.98746011  0.82927942     0.35300
C2119       C  0.55833101  0.42947911  0.90691054    -0.26500
C2120       C  0.55745099  0.45000767  0.87592790    -0.14500
C2121       C  0.57287442  0.44910332  0.83943939     0.36100
C2122       C  0.59193600  0.43064020  0.83634804    -0.25900
C2123       C  0.59413896  0.41111150  0.86824201    -0.15100
C2124       C  0.57510174  0.40916348  0.90314828     0.37200
N2125       N  0.57223830  0.38653138  0.93512422    -0.89400
H2126       H  0.54689821  0.43009997  0.93515542     0.18300
H2127       H  0.60534014  0.43201182  0.80885528     0.18300
N2128       N  0.56930126  0.46600047  0.80502450    -0.88400
H2129       H  0.54475869  0.36777815  0.94017617     0.35700
H2130       H  0.58325846  0.40335707  0.96048696     0.40800
H2131       H  0.55307934  0.47706199  0.81051686     0.40400
H2132       H  0.55562476  0.44537236  0.78335488     0.35300
C2133       C  0.86686960  0.05492940  0.73573505    -0.26500
C2134       C  0.88527905  0.09342017  0.73777607    -0.14500
C2135       C  0.92362906  0.11397819  0.73665807     0.36100
C2136       C  0.94250660  0.09568273  0.73175618    -0.25900
C2137       C  0.92431555  0.05714531  0.72761709    -0.15100
C2138       C  0.88585849  0.03645417  0.73073774     0.37200
N2139       N  0.86595960  0.99701276  0.72650513    -0.89400
H2140       H  0.83749121  0.03937055  0.73669063     0.18300
H2141       H  0.97181313  0.11208260  0.72968074     0.18300
N2142       N  0.94434513  0.15351857  0.73945318    -0.88400
H2143       H  0.83803349  0.98638608  0.72634926     0.35700
H2144       H  0.87159926  0.98678876  0.75145253     0.40800
H2145       H  0.92792980  0.16440448  0.74421342     0.40400
H2146       H  0.95700548  0.16318527  0.71232151     0.35300
C2147       C  0.91242067  0.33194064  0.75286847    -0.26500
C2148       C  0.92953139  0.31318646  0.74069290    -0.14500
C2149       C  0.96489143  0.33323183  0.72478112     0.36100
C2150       C  0.98149393  0.37130587  0.71975551    -0.25900
C2151       C  0.96305967  0.38940249  0.72899313    -0.15100
C2152       C  0.92839607  0.36969287  0.74629149     0.37200
N2153       N  0.90925263  0.38794023  0.75640500    -0.89400
H2154       H  0.88536786  0.31643584  0.76498204     0.18300
H2155       H  0.00816342  0.38642654  0.70666293     0.18300
N2156       N  0.98418132  0.31572459  0.71241701    -0.88400
H2157       H  0.88494832  0.36994743  0.77057763     0.35700
H2158       H  0.90192443  0.39484096  0.73011842     0.40800
H2159       H  0.96973088  0.28782304  0.71898440     0.40400
H2160       H  0.00820872  0.32760316  0.72902393     0.35300
C2161       C  0.69191538  0.08359805  0.75023480    -0.26500
C2162       C  0.71094849  0.11420446  0.72634882    -0.14500
C2163       C  0.69165235  0.12209780  0.69889146     0.36100
C2164       C  0.65402335  0.09809786  0.69448164    -0.25900
C2165       C  0.63483918  0.06647748  0.71733067    -0.15100
C2166       C  0.65439494  0.05976836  0.74607050     0.37200
N2167       N  0.63728692  0.02916928  0.77159690    -0.89400
H2168       H  0.70650349  0.07755692  0.77164839     0.18300
H2169       H  0.63979437  0.10403292  0.67251583     0.18300
N2170       N  0.71035556  0.15459809  0.67570859    -0.88400
H2171       H  0.62528715  0.00486423  0.75447369     0.35700
H2172       H  0.61770225  0.03111501  0.78771940     0.40800
H2173       H  0.72073531  0.17735767  0.69514747     0.40400
H2174       H  0.69231279  0.15630632  0.65672559     0.35300
C2175       C  0.87447206  0.06108230  0.98675334    -0.26500
C2176       C  0.89250635  0.09893402  0.98187852    -0.14500
C2177       C  0.92979251  0.11916979  0.97346975     0.36100
C2178       C  0.94779760  0.10036857  0.96611910    -0.25900
C2179       C  0.92921835  0.06192527  0.96810695    -0.15100
C2180       C  0.89255863  0.04218034  0.98061803     0.37200
N2181       N  0.87323855  0.00295404  0.98509209    -0.89400
H2182       H  0.84594933  0.04627370  0.99420485     0.18300
H2183       H  0.97608871  0.11563080  0.95771816     0.18300
N2184       N  0.94906988  0.15865806  0.47261189    -0.88400
H2185       H  0.84593592  0.49267739  0.99167578     0.35700
H2186       H  0.88437290  0.49760293  0.00909477     0.40800
H2187       H  0.93918629  0.16581776  0.44863867     0.40400
H2188       H  0.97659898  0.16939385  0.96715660     0.35300
C2189       C  0.92521784  0.33207355  0.51492245    -0.26500
C2190       C  0.92935404  0.31041015  0.98603451    -0.14500
C2191       C  0.95400743  0.32760488  0.95487706     0.36100
C2192       C  0.97141178  0.36576646  0.95133290    -0.25900
C2193       C  0.96616574  0.38708199  0.97932521    -0.15100
C2194       C  0.94346610  0.37024763  0.51205104     0.37200
N2195       N  0.93695604  0.39059694  0.54181471    -0.89400
H2196       H  0.90631850  0.31915913  0.53882956     0.18300
H2197       H  0.98804337  0.37867137  0.92586731     0.18300
N2198       N  0.96076897  0.30623725  0.92666820    -0.88400
H2199       H  0.90995727  0.38318219  0.53854576     0.35700
H2200       H  0.95298068  0.41896849  0.53796413     0.40800
H2201       H  0.97275246  0.29419196  0.94187157     0.40400
H2202       H  0.97949556  0.32316509  0.90559967     0.35300
C2203       C  0.65346732  0.10596267  0.97021326    -0.26500
C2204       C  0.63342606  0.06725425  0.96963109    -0.14500
C2205       C  0.65163520  0.04850321  0.97789762     0.36100
C2206       C  0.68952463  0.06905123  0.98461751    -0.25900
C2207       C  0.70923067  0.10755465  0.98328877    -0.15100
C2208       C  0.69085820  0.12614411  0.47623852     0.37200
N2209       N  0.70947367  0.16556889  0.47438767    -0.89400
H2210       H  0.64012840  0.12095899  0.46425618     0.18300
H2211       H  0.70403760  0.05510096  0.98954681     0.18300
N2212       N  0.63220843  0.00897861  0.97774802    -0.88400
H2213       H  0.70756251  0.17207012  0.44526253     0.35700
H2214       H  0.73702319  0.17813798  0.48118210     0.40800
H2215       H  0.61462979  0.00037696  0.00177383     0.40400
H2216       H  0.65000309  0.99977547  0.98255870     0.35300
C2217       C  0.87193388  0.18412522  0.83910017    -0.26500
C2218       C  0.84259865  0.18259787  0.81986597    -0.14500
C2219       C  0.81981107  0.19063176  0.84197636     0.36100
C2220       C  0.81958594  0.18781298  0.88274423    -0.25900
C2221       C  0.84414851  0.18097059  0.90182132    -0.15100
C2222       C  0.87424406  0.18546149  0.87990444     0.37200
N2223       N  0.90852099  0.19479466  0.89701657    -0.89400
H2224       H  0.89410079  0.18589878  0.82220287     0.18300
H2225       H  0.80155516  0.19318918  0.89969885     0.18300
N2226       N  0.79937077  0.20431940  0.82371738    -0.88400
H2227       H  0.91326735  0.17368542  0.89011491     0.35700
H2228       H  0.90977012  0.19885741  0.92747853     0.40800
H2229       H  0.81793821  0.22964813  0.81152861     0.40400
H2230       H  0.78462665  0.20942809  0.84466538     0.35300
C2231       C  0.87363269  0.18168207  0.58927382    -0.26500
C2232       C  0.84471613  0.18119666  0.56989682    -0.14500
C2233       C  0.82431761  0.19254857  0.59155587     0.36100
C2234       C  0.82614144  0.19345684  0.63239536    -0.25900
C2235       C  0.84852224  0.18401108  0.65214257    -0.15100
C2236       C  0.87644198  0.18386078  0.63027583     0.37200
N2237       N  0.90924640  0.18925497  0.64767234    -0.89400
H2238       H  0.89518773  0.18211518  0.57255743     0.18300
H2239       H  0.81020032  0.20220306  0.64851676     0.18300
N2240       N  0.80331624  0.20505559  0.57252312    -0.88400
H2241       H  0.91068615  0.16593739  0.64166270     0.35700
H2242       H  0.91069709  0.19386980  0.67811494     0.40800
H2243       H  0.81372995  0.23245751  0.58129132     0.40400
H2244       H  0.77663934  0.18959297  0.58266300     0.35300
C2245       C  0.84170332  0.67732346  0.44585727     0.29900
C2246       C  0.84225230  0.67772527  0.02582857     0.29900
C2247       C  0.85242800  0.65193205  0.46446238    -0.06300
C2248       C  0.86630280  0.71424442  0.46629977    -0.07100
C2249       C  0.80471763  0.66388371  0.46515570    -0.07000
C2250       C  0.85309092  0.65231780  0.00556665    -0.06300
C2251       C  0.86723897  0.71465865  0.00677802    -0.07100
C2252       C  0.80482032  0.66378794  0.00642040    -0.07000
C2253       C  0.86521220  0.62971816  0.01664644    -0.32400
N2254       N  0.87243959  0.61666915  0.48343471     0.14100
C2255       C  0.86370190  0.62892230  0.45144191    -0.32400
H2256       H  0.86704782  0.62275497  0.42115575     0.16100
C2257       C  0.89189685  0.75025509  0.01906689    -0.31400
N2258       N  0.90562049  0.77117763  0.98652632     0.12800
C2259       C  0.88943273  0.74929861  0.45417761    -0.31300
C2260       C  0.76927601  0.63997175  0.01759927    -0.31600
N2261       N  0.74799940  0.62744303  0.48466061     0.13400
H2262       H  0.75961291  0.63150067  0.04725557     0.16000
C2263       C  0.76937619  0.64057947  0.45264190    -0.31600
H2264       H  0.75977272  0.63262056  0.42246960     0.16000
H2265       H  0.89333448  0.75828475  0.42399134     0.16000
H2266       H  0.87002095  0.62417982  0.04625601     0.16100
H2267       H  0.89907176  0.76020021  0.04933229     0.16000
C2268       C  0.84523309  0.68039040  0.19626412     0.29900
C2269       C  0.84157275  0.67984058  0.27587852     0.29900
C2270       C  0.85090542  0.65145853  0.21592932    -0.06300
C2271       C  0.87211281  0.71648108  0.21768687    -0.07100
C2272       C  0.80823558  0.67084470  0.21345663    -0.07000
C2273       C  0.84955709  0.65156333  0.25692288    -0.06300
C2274       C  0.87018120  0.71631512  0.25815508    -0.07100
C2275       C  0.80617050  0.67011129  0.25450263    -0.07000
C2276       C  0.85838624  0.62657845  0.26956464    -0.32400
N2277       N  0.86514342  0.61158126  0.23740411     0.14100
C2278       C  0.85962409  0.62574605  0.20455725    -0.32400
H2279       H  0.86396035  0.61935178  0.17477813     0.16100
C2280       C  0.89280041  0.75210809  0.27180623    -0.31400
N2281       N  0.90894354  0.77366991  0.24026206     0.12800
C2282       C  0.89614977  0.75217894  0.20698030    -0.31300
C2283       C  0.76982717  0.64735558  0.26353528    -0.31600
N2284       N  0.74988627  0.63695231  0.22974045     0.13400
H2285       H  0.75882259  0.63756606  0.29249456     0.16000
C2286       C  0.77312808  0.64930444  0.19914100    -0.31600
H2287       H  0.76509773  0.64064960  0.16869061     0.16000
H2288       H  0.90207812  0.76223417  0.17718624     0.16000
H2289       H  0.86225693  0.62156732  0.29978141     0.16100
H2290       H  0.89573611  0.76205185  0.30208436     0.16000
O2291       O  0.57315425  0.51400581  0.45837309    -0.80300
O2292       O  0.97131000  0.55709031  0.42738408    -0.80300
O2293       O  0.55341718  0.59487099  0.39369879    -0.80300
O2294       O  0.96674153  0.98742496  0.00941708    -0.80200
O2295       O  0.50249278  0.57225954  0.35981316    -0.80400
O2296       O  0.52489270  0.01691946  0.00711105    -0.80300
O2297       O  0.93490875  0.51003058  0.46081625    -0.80300
O2298       O  0.58417585  0.56724577  0.43955458    -0.80300
C2299       C  0.59489056  0.54836701  0.45600355     1.05200
C2300       C  0.94670598  0.54260497  0.45228707     1.09300
C2301       C  0.53304696  0.59946847  0.37115076     1.09400
C2302       C  0.99670361  0.00563710  0.02758475     1.09300
O2303       O  0.01249984  0.94974300  0.48365231    -0.80300
O2304       O  0.98044992  0.49608063  0.34282723    -0.80400
O2305       O  0.56566496  0.00943477  0.38101600    -0.80300
O2306       O  0.93024239  0.96415490  0.39577280    -0.80300
O2307       O  0.92944751  0.01012530  0.36725223    -0.80300
O2308       O  0.51609274  0.96369331  0.40508581    -0.80300
O2309       O  0.96240005  0.93486752  0.44963308    -0.80200
O2310       O  0.53597152  0.53979180  0.33310024    -0.80300
Co2311     Co  0.51887778  0.99040455  0.45519549     1.51500
Co2312     Co  0.97556109  0.52447458  0.38862363     1.51700
Co2313     Co  0.55607206  0.55039459  0.38974946     1.51600
Co2314     Co  0.95594970  0.97956623  0.45011574     1.51500
O2315       O  0.50975047  0.52313692  0.42517474    -1.42200
C2316       C  0.98089394  0.92580119  0.47146632     1.09300
C2317       C  0.50568728  0.51456620  0.31879911     1.09400
C2318       C  0.54466487  0.97523796  0.38556477     1.09400
C2319       C  0.91242616  0.97677859  0.37825393     1.09300
O2320       O  0.57667344  0.51103021  0.22659155    -0.80300
O2321       O  0.97636924  0.56021024  0.19914884    -0.80300
O2322       O  0.56041174  0.56577599  0.11307275    -0.80300
O2323       O  0.97015596  0.98303709  0.25874768    -0.80200
O2324       O  0.53762464  0.58646510  0.15602812    -0.80400
O2325       O  0.52693209  0.02794654  0.25145411    -0.80300
O2326       O  0.93087960  0.50538503  0.21361855    -0.80300
O2327       O  0.57992797  0.54902369  0.18155375    -0.80300
C2328       C  0.59550520  0.54080170  0.20848857     1.09400
C2329       C  0.94541612  0.54009314  0.21415881     1.09300
C2330       C  0.56090798  0.59262239  0.13021548     1.09400
C2331       C  0.00042663  0.00848061  0.27417527     1.09300
O2332       O  0.00600770  0.95454484  0.23108953    -0.80300
O2333       O  0.99466904  0.53622264  0.08850202    -0.80400
O2334       O  0.57491221  0.01042283  0.11482859    -0.80300
O2335       O  0.92464800  0.95791499  0.14939410    -0.80300
O2336       O  0.93345905  0.01205410  0.13535751    -0.80300
O2337       O  0.54023134  0.97169085  0.16065773    -0.80300
O2338       O  0.96024880  0.93299290  0.19069810    -0.80200
O2339       O  0.50625532  0.49190529  0.09344534    -0.80300
Co2340     Co  0.53298182  0.00320756  0.20391342     1.51500
Co2341     Co  0.98681113  0.54674996  0.14672192     1.51700
Co2342     Co  0.53909211  0.51705402  0.13980360     1.51600
Co2343     Co  0.94978466  0.97200138  0.20109361     1.51500
O2344       O  0.49649247  0.50971580  0.17308245    -1.42200
C2345       C  0.97764956  0.92735543  0.21613139     1.09300
C2346       C  0.49847234  0.51100837  0.07208812     1.09400
C2347       C  0.56329410  0.98038251  0.13235078     1.09400
C2348       C  0.91364066  0.97715435  0.13421485     1.09300
C2349       C  0.66403575  0.85008113  0.31858035     0.29900
C2350       C  0.66228679  0.84550555  0.39846175     0.29900
C2351       C  0.64582030  0.86851083  0.34030712    -0.06300
C2352       C  0.64204071  0.81095296  0.33471184    -0.07100
C2353       C  0.70084807  0.86667369  0.33947395    -0.07000
C2354       C  0.64667753  0.86762674  0.38130994    -0.06300
C2355       C  0.64138684  0.80891916  0.37540683    -0.07100
C2356       C  0.70020224  0.86481133  0.38010361    -0.07000
C2357       C  0.63034394  0.88569600  0.39568147    -0.32400
N2358       N  0.61566312  0.89398513  0.36512872     0.14100
C2359       C  0.62492999  0.88325897  0.33108940    -0.32400
H2360       H  0.61592717  0.88460413  0.30181122     0.16100
C2361       C  0.61824530  0.77278276  0.38479241    -0.31400
N2362       N  0.60470965  0.75274332  0.35077514     0.12800
C2363       C  0.61901140  0.77563355  0.31987947    -0.31300
C2364       C  0.73586701  0.88321536  0.39293613    -0.31600
N2365       N  0.75768558  0.89475626  0.36097821     0.13400
H2366       H  0.74561014  0.88869824  0.42319072     0.16000
C2367       C  0.73659414  0.88492467  0.32805553    -0.31600
H2368       H  0.74651904  0.89057355  0.29811132     0.16000
H2369       H  0.61259576  0.76717793  0.28913243     0.16000
H2370       H  0.62991256  0.89255592  0.42642693     0.16100
H2371       H  0.61166123  0.76176619  0.41416498     0.16000
C2372       C  0.66552973  0.83912527  0.06828330     0.29900
C2373       C  0.66891629  0.84391750  0.14843719     0.29900
C2374       C  0.64383950  0.85471739  0.08817051    -0.06300
C2375       C  0.65195508  0.80281610  0.08930374    -0.07100
C2376       C  0.70361480  0.86488377  0.08625431    -0.07000
C2377       C  0.64489253  0.85624122  0.12922488    -0.06300
C2378       C  0.65267644  0.80493015  0.13009422    -0.07100
C2379       C  0.70510457  0.86663124  0.12717026    -0.07000
C2380       C  0.62664257  0.87326390  0.14149425    -0.32400
N2381       N  0.61638696  0.88382640  0.10923659     0.14100
C2382       C  0.62731556  0.87347596  0.07657395    -0.32400
H2383       H  0.62539875  0.88124482  0.04692421     0.16100
C2384       C  0.63784122  0.76946000  0.14281779    -0.31400
N2385       N  0.63183006  0.74658453  0.11122804     0.12800
C2386       C  0.63946610  0.76676150  0.07815123    -0.31300
C2387       C  0.74080453  0.88954800  0.13839299    -0.31600
N2388       N  0.76104227  0.90205456  0.10536263     0.13400
H2389       H  0.75148934  0.89593750  0.16829477     0.16000
C2390       C  0.73875666  0.88764535  0.07329472    -0.31600
H2391       H  0.74769907  0.89316331  0.04304997     0.16000
H2392       H  0.63724899  0.75640331  0.04818134     0.16000
H2393       H  0.62274710  0.87960789  0.17151122     0.16100
H2394       H  0.63147820  0.76088109  0.17302735     0.16000
C2395       C  0.67641790  0.82692266  0.25644793    -0.26500
C2396       C  0.66902277  0.85230876  0.27454683    -0.14500
C2397       C  0.67572664  0.88288286  0.25216607     0.36100
C2398       C  0.67639464  0.87993182  0.21120089    -0.25900
C2399       C  0.67338299  0.84866262  0.19268048    -0.15100
C2400       C  0.68085956  0.82638041  0.21579367     0.37200
N2401       N  0.69520223  0.80552598  0.19864242    -0.89400
H2402       H  0.68018312  0.80840189  0.27425193     0.18300
H2403       H  0.68094699  0.90294336  0.19388449     0.18300
N2404       N  0.68666405  0.91841622  0.26912795    -0.88400
H2405       H  0.69949975  0.79105326  0.22021513     0.35700
H2406       H  0.72062329  0.82416244  0.18700472     0.40800
H2407       H  0.69312909  0.92063944  0.29909934     0.40400
H2408       H  0.66595007  0.92366946  0.26473281     0.35300
C2409       C  0.63090135  0.82865536  0.50518013    -0.26500
C2410       C  0.66234598  0.83417568  0.02400928    -0.14500
C2411       C  0.68732021  0.83023179  0.50052239     0.36100
C2412       C  0.68628356  0.83354006  0.45990647    -0.25900
C2413       C  0.66055973  0.83963248  0.44227464    -0.15100
C2414       C  0.62951298  0.83074665  0.46436441     0.37200
N2415       N  0.59594694  0.82116479  0.44561647    -0.89400
H2416       H  0.60703362  0.82214170  0.02191791     0.18300
H2417       H  0.70487113  0.82971704  0.44205904     0.18300
N2418       N  0.71176809  0.82001892  0.01569860    -0.88400
H2419       H  0.58674156  0.83711881  0.45879194     0.35700
H2420       H  0.57692247  0.79371803  0.45177785     0.40800
H2421       H  0.70902906  0.81544449  0.04590152     0.40400
H2422       H  0.73840321  0.84108512  0.51022159     0.35300
C2423       C  0.60995788  0.65510956  0.14978505    -0.26500
C2424       C  0.58678878  0.63103744  0.12006160    -0.14500
C2425       C  0.58286525  0.64534164  0.08476891     0.36100
C2426       C  0.59905893  0.68359462  0.08149060    -0.25900
C2427       C  0.61982515  0.70790545  0.11279313    -0.15100
C2428       C  0.62756822  0.69338103  0.14600597     0.37200
N2429       N  0.65300037  0.71734852  0.17593409    -0.89400
H2430       H  0.61325285  0.64392880  0.17674472     0.18300
H2431       H  0.59367248  0.69399959  0.05523447     0.18300
N2432       N  0.56055422  0.62100884  0.05328749    -0.88400
H2433       H  0.67846686  0.73214249  0.16277794     0.35700
H2434       H  0.65526926  0.70220038  0.19833549     0.40800
H2435       H  0.57645944  0.62750456  0.02797676     0.40400
H2436       H  0.53977862  0.62603806  0.04774395     0.35300
C2437       C  0.85751406  0.97844684  0.12118011    -0.26500
C2438       C  0.87552414  0.95890518  0.11946832    -0.14500
C2439       C  0.85558094  0.92119621  0.10814961     0.36100
C2440       C  0.81802037  0.90353642  0.10108516    -0.25900
C2441       C  0.79993898  0.92264138  0.10520430    -0.15100
C2442       C  0.81997752  0.96072263  0.11432876     0.37200
N2443       N  0.80303573  0.98200839  0.11736612    -0.89400
H2444       H  0.87234501  0.50742772  0.12970108     0.18300
H2445       H  0.80232561  0.87429481  0.09409795     0.18300
N2446       N  0.87338902  0.90080205  0.10476134    -0.88400
H2447       H  0.80524666  0.49106208  0.14661979     0.35700
H2448       H  0.77536475  0.96605390  0.11038997     0.40800
H2449       H  0.89241552  0.91266334  0.08231814     0.40400
H2450       H  0.85500704  0.87353176  0.09580148     0.35300
C2451       C  0.61365843  0.96981906  0.11959673    -0.26500
C2452       C  0.57611234  0.95541951  0.12110331    -0.14500
C2453       C  0.55185938  0.91710072  0.11518809     0.36100
C2454       C  0.56555290  0.89393541  0.10988534    -0.25900
C2455       C  0.60299575  0.90825570  0.11030149    -0.15100
C2456       C  0.62730474  0.94646996  0.11439240     0.37200
N2457       N  0.66571564  0.96104688  0.11464813    -0.89400
H2458       H  0.63233920  0.99913472  0.12417702     0.18300
H2459       H  0.54695735  0.86451996  0.10627760     0.18300
N2460       N  0.51333997  0.90112057  0.11357243    -0.88400
H2461       H  0.68005985  0.98966691  0.11844650     0.35700
H2462       H  0.67256400  0.95551699  0.08681732     0.40800
H2463       H  0.50748921  0.91422888  0.09175476     0.40400
H2464       H  0.50462648  0.90568300  0.14067888     0.35300
C2465       C  0.59538766  0.69322171  0.32986276    -0.26500
C2466       C  0.58218297  0.71341210  0.34859886    -0.14500
C2467       C  0.54952458  0.69491297  0.36970507     0.36100
C2468       C  0.53153981  0.65664774  0.37371251    -0.25900
C2469       C  0.54638034  0.63689200  0.35773300    -0.15100
C2470       C  0.57810707  0.65508395  0.33478078     0.37200
N2471       N  0.59357476  0.63500341  0.31833635    -0.89400
H2472       H  0.62063248  0.70770295  0.31383051     0.18300
H2473       H  0.50736363  0.64279644  0.39157347     0.18300
N2474       N  0.53534744  0.71523022  0.38818588    -0.88400
H2475       H  0.61715237  0.65251446  0.30272760     0.35700
H2476       H  0.57495012  0.61575740  0.29777727     0.40800
H2477       H  0.53363330  0.71056127  0.41850469     0.40400
H2478       H  0.50903929  0.70473236  0.37728643     0.35300
C2479       C  0.81337740  0.89991644  0.38544616    -0.26500
C2480       C  0.79654792  0.91366519  0.36232696    -0.14500
C2481       C  0.81790066  0.94638681  0.34195581     0.36100
C2482       C  0.85575381  0.96566191  0.34607464    -0.25900
C2483       C  0.87286584  0.95280593  0.37045098    -0.15100
C2484       C  0.85130099  0.91894562  0.38970529     0.37200
N2485       N  0.86760441  0.90432197  0.41427813    -0.89400
H2486       H  0.79665589  0.87444146  0.40074137     0.18300
H2487       H  0.87166908  0.49124592  0.33080111     0.18300
N2488       N  0.80106231  0.96088725  0.31841846    -0.88400
H2489       H  0.84803639  0.87821289  0.42402073     0.35700
H2490       H  0.87784912  0.92128496  0.43957535     0.40800
H2491       H  0.81035137  0.96296835  0.28957391     0.40400
H2492       H  0.80952590  0.48725819  0.32892126     0.35300
C2493       C  0.55822010  0.92933853  0.40695888    -0.26500
C2494       C  0.55738803  0.94990968  0.37598874    -0.14500
C2495       C  0.57285113  0.94903688  0.33951743     0.36100
C2496       C  0.59188973  0.93055308  0.33642776    -0.25900
C2497       C  0.59403198  0.91097012  0.36829926    -0.15100
C2498       C  0.57495607  0.90898705  0.40318441     0.37200
N2499       N  0.57201990  0.88628365  0.43511917    -0.89400
H2500       H  0.54677515  0.92995127  0.43519878     0.18300
H2501       H  0.60533026  0.93195663  0.30895302     0.18300
N2502       N  0.56935705  0.96600299  0.30511793    -0.88400
H2503       H  0.54452786  0.86754537  0.44012028     0.35700
H2504       H  0.58301725  0.90306037  0.46051777     0.40800
H2505       H  0.55314585  0.97707837  0.31059429     0.40400
H2506       H  0.55570470  0.94541210  0.28340604     0.35300
C2507       C  0.86689325  0.55492210  0.23580963    -0.26500
C2508       C  0.88530092  0.59341165  0.23783375    -0.14500
C2509       C  0.92364930  0.61397263  0.23668533     0.36100
C2510       C  0.94252598  0.59567919  0.23175418    -0.25900
C2511       C  0.92433341  0.55713955  0.22763128    -0.15100
C2512       C  0.88588044  0.53644864  0.23079089     0.37200
N2513       N  0.86598168  0.49700773  0.22656511    -0.89400
H2514       H  0.83751580  0.53936229  0.23679014     0.18300
H2515       H  0.97183019  0.61208088  0.22964720     0.18300
N2516       N  0.94436211  0.65351300  0.23948268    -0.88400
H2517       H  0.83805501  0.48638187  0.22641018     0.35700
H2518       H  0.87162798  0.48678760  0.25150926     0.40800
H2519       H  0.92794929  0.66439397  0.24429935     0.40400
H2520       H  0.95698345  0.66318348  0.21233424     0.35300
C2521       C  0.91244254  0.83194872  0.25295394    -0.26500
C2522       C  0.92956273  0.81320430  0.24077529    -0.14500
C2523       C  0.96492839  0.83326792  0.22487694     0.36100
C2524       C  0.98152143  0.87134514  0.21985904    -0.25900
C2525       C  0.96308074  0.88943472  0.22910684    -0.15100
C2526       C  0.92841405  0.86970649  0.24639870     0.37200
N2527       N  0.90926308  0.88794179  0.25653100    -0.89400
H2528       H  0.88538780  0.81643399  0.26506081     0.18300
H2529       H  0.00819169  0.88647523  0.20676945     0.18300
N2530       N  0.98423803  0.81577800  0.21252646    -0.88400
H2531       H  0.88495527  0.86993555  0.27069041     0.35700
H2532       H  0.90194137  0.89486071  0.23025272     0.40800
H2533       H  0.96979240  0.78787374  0.21908442     0.40400
H2534       H  0.00825594  0.82766008  0.22915055     0.35300
C2535       C  0.69195908  0.58356058  0.25023247    -0.26500
C2536       C  0.71099639  0.61418416  0.22637316    -0.14500
C2537       C  0.69169921  0.62212930  0.19897387     0.36100
C2538       C  0.65406472  0.59814134  0.19456139    -0.25900
C2539       C  0.63487103  0.56651007  0.21739513    -0.15100
C2540       C  0.65442956  0.55977048  0.24610411     0.37200
N2541       N  0.63731202  0.52918845  0.27165075    -0.89400
H2542       H  0.70654655  0.57749112  0.27161770     0.18300
H2543       H  0.63983490  0.60410683  0.17262720     0.18300
N2544       N  0.71040533  0.65468515  0.17587629    -0.88400
H2545       H  0.62526044  0.50487398  0.25454223     0.35700
H2546       H  0.61777115  0.53118627  0.28780377     0.40800
H2547       H  0.72081050  0.67740035  0.19538173     0.40400
H2548       H  0.69235599  0.65645535  0.15696390     0.35300
C2549       C  0.87442393  0.56105169  0.48661391    -0.26500
C2550       C  0.89253278  0.59893367  0.48194992    -0.14500
C2551       C  0.92984128  0.61916071  0.47366019     0.36100
C2552       C  0.94781955  0.60034109  0.46625158    -0.25900
C2553       C  0.92917997  0.56188315  0.46805406    -0.15100
C2554       C  0.89247359  0.54212361  0.48040721     0.37200
N2555       N  0.87306966  0.50286324  0.48462054    -0.89400
H2556       H  0.84587342  0.54624512  0.49394328     0.18300
H2557       H  0.97613596  0.61560228  0.45794385     0.18300
N2558       N  0.94908464  0.65860695  0.97273728    -0.88400
H2559       H  0.84599598  0.99276124  0.49188219     0.35700
H2560       H  0.88445877  0.99774018  0.50929380     0.40800
H2561       H  0.93919118  0.66581268  0.94881084     0.40400
H2562       H  0.97669299  0.66938293  0.46753721     0.35300
C2563       C  0.92545184  0.83210455  0.01499177    -0.26500
C2564       C  0.92919664  0.81040556  0.48611226    -0.14500
C2565       C  0.95391581  0.82758485  0.45500670     0.36100
C2566       C  0.97134917  0.86574508  0.45145193    -0.25900
C2567       C  0.96606232  0.88707440  0.47938356    -0.15100
C2568       C  0.94368500  0.87027979  0.01213726     0.37200
N2569       N  0.93726360  0.89062041  0.04199579    -0.89400
H2570       H  0.90662952  0.81919158  0.03896120     0.18300
H2571       H  0.98802436  0.87863403  0.42601216     0.18300
N2572       N  0.96070722  0.80620061  0.42685291    -0.88400
H2573       H  0.91024181  0.88317177  0.03887332     0.35700
H2574       H  0.95324298  0.91899013  0.03812606     0.40800
H2575       H  0.97268318  0.79417435  0.44210405     0.40400
H2576       H  0.97944668  0.82311287  0.40578376     0.35300
C2577       C  0.65344244  0.60595061  0.47012481    -0.26500
C2578       C  0.63337428  0.56724310  0.46968495    -0.14500
C2579       C  0.65156630  0.54849189  0.47803093     0.36100
C2580       C  0.68946109  0.56903246  0.48470365    -0.25900
C2581       C  0.70918992  0.60752863  0.48324319    -0.15100
C2582       C  0.69092911  0.62620421  0.97641334     0.37200
N2583       N  0.70954069  0.66563368  0.97464514    -0.89400
H2584       H  0.64019419  0.62102279  0.96444766     0.18300
H2585       H  0.70395858  0.55507824  0.48970832     0.18300
N2586       N  0.63211171  0.50896961  0.47802808    -0.88400
H2587       H  0.70767550  0.67218519  0.94552789     0.35700
H2588       H  0.73708041  0.67819506  0.98148692     0.40800
H2589       H  0.61455475  0.50045902  0.50207137     0.40400
H2590       H  0.64989231  0.49976042  0.48290125     0.35300
C2591       C  0.87196171  0.68410648  0.33915860    -0.26500
C2592       C  0.84262686  0.68257977  0.31991877    -0.14500
C2593       C  0.81982979  0.69060322  0.34202510     0.36100
C2594       C  0.81960228  0.68778459  0.38279145    -0.25900
C2595       C  0.84416335  0.68094305  0.40186989    -0.15100
C2596       C  0.87427164  0.68545505  0.37996411     0.37200
N2597       N  0.90856181  0.69484162  0.39708909    -0.89400
H2598       H  0.89413260  0.68588455  0.32226529     0.18300
H2599       H  0.80156935  0.69315751  0.39974686     0.18300
N2600       N  0.79938108  0.70428020  0.32376422    -0.88400
H2601       H  0.91333522  0.67374124  0.39024731     0.35700
H2602       H  0.90981709  0.69895935  0.42754462     0.40800
H2603       H  0.81794423  0.72962122  0.31159628     0.40400
H2604       H  0.78461300  0.70936028  0.34470693     0.35300
C2605       C  0.87371053  0.68170007  0.08934362    -0.26500
C2606       C  0.84481815  0.68125530  0.06996204    -0.14500
C2607       C  0.82443478  0.69262758  0.09161953     0.36100
C2608       C  0.82623464  0.69350660  0.13245869    -0.25900
C2609       C  0.84859193  0.68403105  0.15220530    -0.15100
C2610       C  0.87650926  0.68386909  0.13034576     0.37200
N2611       N  0.90930610  0.68925105  0.14774958    -0.89400
H2612       H  0.89525721  0.68211272  0.07263099     0.18300
H2613       H  0.81029607  0.70225578  0.14858114     0.18300
N2614       N  0.80347251  0.70518094  0.07258742    -0.88400
H2615       H  0.91074198  0.66593203  0.14173883     0.35700
H2616       H  0.91075271  0.69386429  0.17819302     0.40800
H2617       H  0.81390510  0.73258079  0.08137944     0.40400
H2618       H  0.77678724  0.68973175  0.08270607     0.35300
C2619       C  0.84172895  0.67733667  0.94587062     0.29900
C2620       C  0.84218895  0.67768626  0.52581932     0.29900
C2621       C  0.85238350  0.65188615  0.96447148    -0.06300
C2622       C  0.86640051  0.71425099  0.96629599    -0.07100
C2623       C  0.80476644  0.66398595  0.96518725    -0.07000
C2624       C  0.85311564  0.65235044  0.50555760    -0.06300
C2625       C  0.86711899  0.71464050  0.50678478    -0.07100
C2626       C  0.80475286  0.66367343  0.50638596    -0.07000
C2627       C  0.86523746  0.62975383  0.51664094    -0.32400
N2628       N  0.87239565  0.61661763  0.98343828     0.14100
C2629       C  0.86364275  0.62886321  0.95144901    -0.32400
H2630       H  0.86699082  0.62270106  0.92116187     0.16100
C2631       C  0.89173833  0.75024017  0.51909226    -0.31400
N2632       N  0.90546681  0.77116943  0.48656013     0.12800
C2633       C  0.88954881  0.74929757  0.95415738    -0.31300
C2634       C  0.76920074  0.63988990  0.51755037    -0.31600
N2635       N  0.74805942  0.62749857  0.98472312     0.13400
H2636       H  0.75951822  0.63142981  0.54720328     0.16000
C2637       C  0.76942255  0.64064010  0.95269709    -0.31600
H2638       H  0.75981204  0.63264935  0.92253088     0.16000
H2639       H  0.89341502  0.75827435  0.92396965     0.16000
H2640       H  0.87001193  0.62418796  0.54625249     0.16100
H2641       H  0.89890092  0.76018080  0.54936059     0.16000
C2642       C  0.84518229  0.68039992  0.69626316     0.29900
C2643       C  0.84155905  0.67984637  0.77588326     0.29900
C2644       C  0.85087182  0.65147328  0.71591191    -0.06300
C2645       C  0.87205946  0.71649276  0.71768249    -0.07100
C2646       C  0.80819383  0.67084611  0.71347907    -0.07000
C2647       C  0.84954705  0.65157612  0.75690627    -0.06300
C2648       C  0.87015158  0.71632401  0.75815402    -0.07100
C2649       C  0.80614670  0.67011391  0.75452545    -0.07000
C2650       C  0.85838116  0.62658445  0.76951947    -0.32400
N2651       N  0.86510846  0.61157987  0.73734058     0.14100
C2652       C  0.85957291  0.62575368  0.70451168    -0.32400
H2653       H  0.86388580  0.61936016  0.67472222     0.16100
C2654       C  0.89277367  0.75211605  0.77180378    -0.31400
N2655       N  0.90888834  0.77367919  0.74025427     0.12800
C2656       C  0.89607573  0.75219226  0.70697219    -0.31300
C2657       C  0.76980420  0.64739086  0.76357799    -0.31600
N2658       N  0.74985065  0.63699549  0.72979101     0.13400
H2659       H  0.75880838  0.63761799  0.79254406     0.16000
C2660       C  0.77308224  0.64932157  0.69918129    -0.31600
H2661       H  0.76504052  0.64065574  0.66873563     0.16000
H2662       H  0.90198619  0.76224951  0.67717820     0.16000
H2663       H  0.86226887  0.62156853  0.79972835     0.16100
H2664       H  0.89573692  0.76205709  0.80208625     0.16000
O2665       O  0.57322121  0.51404882  0.95831319    -0.80300
O2666       O  0.97131547  0.55707575  0.92736962    -0.80300
O2667       O  0.55345646  0.59490191  0.89370718    -0.80300
O2668       O  0.96673348  0.98742802  0.50940438    -0.80200
O2669       O  0.50255632  0.57228849  0.85977512    -0.80400
O2670       O  0.52483888  0.01692009  0.50711357    -0.80300
O2671       O  0.93491746  0.51001425  0.96080359    -0.80300
O2672       O  0.58426209  0.56729805  0.93950167    -0.80300
C2673       C  0.59496444  0.54840954  0.95595315     1.05200
C2674       C  0.94670765  0.54258724  0.95227088     1.09300
C2675       C  0.53309399  0.59950363  0.87115585     1.09400
C2676       C  0.99670207  0.00562212  0.52756215     1.09300
O2677       O  0.01255246  0.94978254  0.98369770    -0.80300
O2678       O  0.98049978  0.49607999  0.84282185    -0.80400
O2679       O  0.56572427  0.00949916  0.88094298    -0.80300
O2680       O  0.93028195  0.96415186  0.89577155    -0.80300
O2681       O  0.92949259  0.01011754  0.86723158    -0.80300
O2682       O  0.51614776  0.96376466  0.90501065    -0.80300
O2683       O  0.96245853  0.93488058  0.94964646    -0.80200
O2684       O  0.53602587  0.53985198  0.83305481    -0.80300
Co2685     Co  0.51894578  0.99044755  0.95515139     1.51500
Co2686     Co  0.97559229  0.52446846  0.88861457     1.51700
Co2687     Co  0.55612788  0.55044475  0.88971262     1.51600
Co2688     Co  0.95598032  0.97956622  0.95012003     1.51500
O2689       O  0.50980767  0.52318655  0.92515431    -1.42200
C2690       C  0.98096269  0.92582530  0.97148067     1.09300
C2691       C  0.50576017  0.51457982  0.81876250     1.09400
C2692       C  0.54471395  0.97530415  0.88547945     1.09400
C2693       C  0.91246745  0.97677713  0.87825027     1.09300
O2694       O  0.57669088  0.51097042  0.72649626    -0.80300
O2695       O  0.97635958  0.56019513  0.69911116    -0.80300
O2696       O  0.56040744  0.56574766  0.61303385    -0.80300
O2697       O  0.97018562  0.98305168  0.75874122    -0.80200
O2698       O  0.53764475  0.58644301  0.65601061    -0.80400
O2699       O  0.52698333  0.02791509  0.75140464    -0.80300
O2700       O  0.93087602  0.50537783  0.71360344    -0.80300
O2701       O  0.57991903  0.54900790  0.68152943    -0.80300
C2702       C  0.59550196  0.54077819  0.70844771     1.09400
C2703       C  0.94540087  0.54008396  0.71411119     1.09300
C2704       C  0.56091513  0.59259515  0.63018348     1.09400
C2705       C  0.00047120  0.00847508  0.77416321     1.09300
O2706       O  0.00602125  0.95453222  0.73106654    -0.80300
O2707       O  0.99467361  0.53620786  0.58847755    -0.80400
O2708       O  0.57493415  0.01042211  0.61479867    -0.80300
O2709       O  0.92464557  0.95789134  0.64940195    -0.80300
O2710       O  0.93344834  0.01201753  0.63532597    -0.80300
O2711       O  0.54021192  0.97165023  0.66057190    -0.80300
O2712       O  0.96024712  0.93298365  0.69070087    -0.80200
O2713       O  0.50625558  0.49189021  0.59342883    -0.80300
Co2714     Co  0.53299269  0.00316308  0.70384977     1.51500
Co2715     Co  0.98680779  0.54672948  0.64669083     1.51700
Co2716     Co  0.53909894  0.51703837  0.63977434     1.51600
Co2717     Co  0.94979359  0.97199761  0.70109198     1.51500
O2718       O  0.49650031  0.50969108  0.67305283    -1.42200
C2719       C  0.97765229  0.92734861  0.71612802     1.09300
C2720       C  0.49844875  0.51098563  0.57209061     1.09400
C2721       C  0.56330194  0.98036685  0.63229298     1.09400
C2722       C  0.91362210  0.97711644  0.63422390     1.09300
C2723       C  0.66406596  0.85011299  0.81858354     0.29900
C2724       C  0.66234991  0.84560168  0.89847085     0.29900
C2725       C  0.64585233  0.86855174  0.84029348    -0.06300
C2726       C  0.64208227  0.81099903  0.83475225    -0.07100
C2727       C  0.70089022  0.86672640  0.83946394    -0.07000
C2728       C  0.64673626  0.86770830  0.88129605    -0.06300
C2729       C  0.64144426  0.80899678  0.87544970    -0.07100
C2730       C  0.70025632  0.86489343  0.88009789    -0.07000
C2731       C  0.63043999  0.88581627  0.89565345    -0.32400
N2732       N  0.61573844  0.89407859  0.86509862     0.14100
C2733       C  0.62496404  0.88330049  0.83106676    -0.32400
H2734       H  0.61593735  0.88461372  0.80179019     0.16100
C2735       C  0.61830170  0.77286800  0.88486888    -0.31400
N2736       N  0.60474998  0.75280486  0.85086833     0.12800
C2737       C  0.61904228  0.77567110  0.81995258    -0.31300
C2738       C  0.73592057  0.88328865  0.89292318    -0.31600
N2739       N  0.75773121  0.89479552  0.86096016     0.13400
H2740       H  0.74566943  0.88878407  0.92317586     0.16000
C2741       C  0.73663558  0.88495524  0.82803803    -0.31600
H2742       H  0.74655757  0.89058095  0.79809142     0.16000
H2743       H  0.61261517  0.76719175  0.78921245     0.16000
H2744       H  0.63005567  0.89272337  0.92639192     0.16100
H2745       H  0.61173036  0.76187296  0.91425133     0.16000
C2746       C  0.66549552  0.83907497  0.56827179     0.29900
C2747       C  0.66883242  0.84383457  0.64842727     0.29900
C2748       C  0.64377658  0.85463830  0.58814603    -0.06300
C2749       C  0.65192665  0.80276227  0.58927942    -0.07100
C2750       C  0.70356971  0.86484552  0.58627026    -0.07000
C2751       C  0.64480488  0.85614629  0.62920079    -0.06300
C2752       C  0.65262435  0.80485822  0.63007076    -0.07100
C2753       C  0.70503043  0.86657369  0.62718727    -0.07000
C2754       C  0.62656882  0.87318539  0.64145862    -0.32400
N2755       N  0.61635024  0.88377643  0.60919577     0.14100
C2756       C  0.62728331  0.87342333  0.57653901    -0.32400
H2757       H  0.62539731  0.88121128  0.54688835     0.16100
C2758       C  0.63780097  0.76938496  0.64277792    -0.31400
N2759       N  0.63181634  0.74653080  0.61117749     0.12800
C2760       C  0.63945727  0.76671687  0.57810983    -0.31300
C2761       C  0.74071948  0.88949352  0.63844588    -0.31600
N2762       N  0.76098382  0.90202629  0.60543777     0.13400
H2763       H  0.75138007  0.89586030  0.66835777     0.16000
C2764       C  0.73872306  0.88762523  0.57334701    -0.31600
H2765       H  0.74769074  0.89315169  0.54311105     0.16000
H2766       H  0.63725506  0.75636933  0.54813724     0.16000
H2767       H  0.62266602  0.87952912  0.67147275     0.16100
H2768       H  0.63143163  0.76078502  0.67298133     0.16000
C2769       C  0.67639314  0.82690078  0.75645344    -0.26500
C2770       C  0.66901948  0.85230431  0.77454517    -0.14500
C2771       C  0.67568417  0.88284968  0.75213679     0.36100
C2772       C  0.67630875  0.87985888  0.71117373    -0.25900
C2773       C  0.67328296  0.84857621  0.69267142    -0.15100
C2774       C  0.68078299  0.82631443  0.71579292     0.37200
N2775       N  0.69510821  0.80544399  0.69864213    -0.89400
H2776       H  0.68017981  0.80839893  0.77426613     0.18300
H2777       H  0.68085156  0.90285883  0.69384248     0.18300
N2778       N  0.68662685  0.91839691  0.76906225    -0.88400
H2779       H  0.69943296  0.79099480  0.72022155     0.35700
H2780       H  0.72051233  0.82406572  0.68696244     0.40800
H2781       H  0.69311295  0.92065176  0.79902917     0.40400
H2782       H  0.66590886  0.92364485  0.76466294     0.35300
C2783       C  0.63095233  0.82875319  0.00518801    -0.26500
C2784       C  0.66231573  0.83412248  0.52399833    -0.14500
C2785       C  0.68734814  0.83028489  0.00052963     0.36100
C2786       C  0.68633817  0.83363756  0.95991888    -0.25900
C2787       C  0.66063157  0.83975723  0.94228918    -0.15100
C2788       C  0.62958361  0.83087988  0.96437527     0.37200
N2789       N  0.59602933  0.82133224  0.94562338    -0.89400
H2790       H  0.60698517  0.82204412  0.52191557     0.18300
H2791       H  0.70492381  0.82981249  0.94207046     0.18300
N2792       N  0.71177434  0.82001554  0.51570251    -0.88400
H2793       H  0.58683745  0.83729318  0.95881119     0.35700
H2794       H  0.57698932  0.79388488  0.95176448     0.40800
H2795       H  0.70904894  0.81546013  0.54590981     0.40400
H2796       H  0.73840800  0.84107063  0.01023360     0.35300
C2797       C  0.61000434  0.65507812  0.64970745    -0.26500
C2798       C  0.58679053  0.63100230  0.62001299    -0.14500
C2799       C  0.58283021  0.64529600  0.58473228     0.36100
C2800       C  0.59902020  0.68354592  0.58144834    -0.25900
C2801       C  0.61982631  0.70785904  0.61272830    -0.15100
C2802       C  0.62762040  0.69334780  0.64591185     0.37200
N2803       N  0.65310821  0.71732777  0.67579296    -0.89400
H2804       H  0.61333154  0.64390444  0.67665463     0.18300
H2805       H  0.59360189  0.69394835  0.55521097     0.18300
N2806       N  0.56048843  0.62095557  0.55327169    -0.88400
H2807       H  0.67855194  0.73212227  0.66257593     0.35700
H2808       H  0.65542598  0.70219053  0.69816520     0.40800
H2809       H  0.57637046  0.62744177  0.52794296     0.40400
H2810       H  0.53971018  0.62598649  0.54775562     0.35300
C2811       C  0.85748308  0.97840451  0.62122311    -0.26500
C2812       C  0.87548242  0.95885055  0.61953348    -0.14500
C2813       C  0.85550617  0.92111617  0.60831313     0.36100
C2814       C  0.81794447  0.90346695  0.60126231    -0.25900
C2815       C  0.79988251  0.92259503  0.60532056    -0.15100
C2816       C  0.81993832  0.96068245  0.61441528     0.37200
N2817       N  0.80300650  0.98197649  0.61747805    -0.89400
H2818       H  0.87234218  0.50740238  0.62964623     0.18300
H2819       H  0.80223229  0.87421574  0.59432879     0.18300
N2820       N  0.87327925  0.90068222  0.60501866    -0.88400
H2821       H  0.80524908  0.49105064  0.64666353     0.35700
H2822       H  0.77532919  0.96602581  0.61052625     0.40800
H2823       H  0.89229256  0.91246597  0.58255513     0.40400
H2824       H  0.85487245  0.87339330  0.59613948     0.35300
C2825       C  0.61367613  0.96979259  0.61967842    -0.26500
C2826       C  0.57612911  0.95541307  0.62104874    -0.14500
C2827       C  0.55187040  0.91710892  0.61503033     0.36100
C2828       C  0.56555266  0.89393589  0.60971932    -0.25900
C2829       C  0.60298927  0.90823033  0.61025820    -0.15100
C2830       C  0.62731180  0.94643221  0.61449217     0.37200
N2831       N  0.66571643  0.96097973  0.61491400    -0.89400
H2832       H  0.63236004  0.99909549  0.62435763     0.18300
H2833       H  0.54694966  0.86452970  0.60602552     0.18300
N2834       N  0.51335636  0.90115027  0.61334016    -0.88400
H2835       H  0.68007064  0.98959086  0.61881886     0.35700
H2836       H  0.67266659  0.95552790  0.58709624     0.40800
H2837       H  0.50755456  0.91431492  0.59154505     0.40400
H2838       H  0.50460025  0.90565677  0.64044936     0.35300
C2839       C  0.59549059  0.69330298  0.83001059    -0.26500
C2840       C  0.58224823  0.71347175  0.84871351    -0.14500
C2841       C  0.54957262  0.69495339  0.86978895     0.36100
C2842       C  0.53157835  0.65668041  0.87374830    -0.25900
C2843       C  0.54643807  0.63693963  0.85777378    -0.15100
C2844       C  0.57821834  0.65516551  0.83490828     0.37200
N2845       N  0.59375390  0.63512017  0.81854533    -0.89400
H2846       H  0.62075958  0.70780314  0.81402347     0.18300
H2847       H  0.50738098  0.64280984  0.89157589     0.18300
N2848       N  0.53538624  0.71525503  0.88828744    -0.88400
H2849       H  0.61737399  0.65265662  0.80301118     0.35700
H2850       H  0.57519419  0.61588186  0.79793706     0.40800
H2851       H  0.53365245  0.71055508  0.91860026     0.40400
H2852       H  0.50908445  0.70476856  0.87737362     0.35300
C2853       C  0.81341144  0.89992310  0.88541866    -0.26500
C2854       C  0.79659138  0.91369067  0.86231142    -0.14500
C2855       C  0.81794939  0.94643370  0.84198143     0.36100
C2856       C  0.85580014  0.96570118  0.84610886    -0.25900
C2857       C  0.87290520  0.95281939  0.87045993    -0.15100
C2858       C  0.85133391  0.91895130  0.88969667     0.37200
N2859       N  0.86762912  0.90432085  0.91427214    -0.89400
H2860       H  0.79668301  0.87443808  0.90069457     0.18300
H2861       H  0.87171754  0.49127926  0.83084420     0.18300
N2862       N  0.80111708  0.96096224  0.81847866    -0.88400
H2863       H  0.84805614  0.87821265  0.92401193     0.35700
H2864       H  0.87787269  0.92128201  0.93957103     0.40800
H2865       H  0.81041728  0.96308231  0.78963485     0.40400
H2866       H  0.80957655  0.48729924  0.82899119     0.35300
C2867       C  0.55832344  0.92946931  0.90691560    -0.26500
C2868       C  0.55743386  0.94997500  0.87591333    -0.14500
C2869       C  0.57285098  0.94905057  0.83942842     0.36100
C2870       C  0.59190565  0.93058137  0.83635397    -0.25900
C2871       C  0.59411301  0.91107037  0.86826263    -0.15100
C2872       C  0.57509020  0.90914904  0.90317205     0.37200
N2873       N  0.57223844  0.88654156  0.93516949    -0.89400
H2874       H  0.54689995  0.93011074  0.93515941     0.18300
H2875       H  0.60530405  0.93193760  0.80886191     0.18300
N2876       N  0.56928387  0.96593818  0.80500123    -0.88400
H2877       H  0.54476081  0.86779497  0.94023984     0.35700
H2878       H  0.58327035  0.90338687  0.96051737     0.40800
H2879       H  0.55307482  0.97701586  0.81048291     0.40400
H2880       H  0.55559677  0.94530126  0.78334233     0.35300
C2881       C  0.86686448  0.55491652  0.73574044    -0.26500
C2882       C  0.88526800  0.59340878  0.73773096    -0.14500
C2883       C  0.92361378  0.61397088  0.73651942     0.36100
C2884       C  0.94249173  0.59567774  0.73160042    -0.25900
C2885       C  0.92430666  0.55713475  0.72753837    -0.15100
C2886       C  0.88585469  0.53644280  0.73072322     0.37200
N2887       N  0.86595951  0.49699918  0.72653622    -0.89400
H2888       H  0.83748822  0.53935340  0.73675438     0.18300
H2889       H  0.97179320  0.61208291  0.72946032     0.18300
N2890       N  0.94432419  0.65351385  0.73924111    -0.88400
H2891       H  0.83803237  0.48636933  0.72640122     0.35700
H2892       H  0.87162591  0.48680271  0.75148708     0.40800
H2893       H  0.92791656  0.66439959  0.74406434     0.40400
H2894       H  0.95690055  0.66313895  0.71206295     0.35300
C2895       C  0.91246843  0.83198606  0.75304298    -0.26500
C2896       C  0.92953464  0.81321124  0.74077197    -0.14500
C2897       C  0.96486715  0.83324386  0.72478746     0.36100
C2898       C  0.98147692  0.87131988  0.71977315    -0.25900
C2899       C  0.96308511  0.88943859  0.72911405    -0.15100
C2900       C  0.92845815  0.86974705  0.74649680     0.37200
N2901       N  0.90936558  0.88802239  0.75672644    -0.89400
H2902       H  0.88543823  0.81649466  0.76521493     0.18300
H2903       H  0.00811791  0.88642705  0.70661350     0.18300
N2904       N  0.98412316  0.81572295  0.71234174    -0.88400
H2905       H  0.88508316  0.87003848  0.77094113     0.35700
H2906       H  0.90200331  0.89495647  0.73048558     0.40800
H2907       H  0.96968003  0.78782300  0.71891669     0.40400
H2908       H  0.00818082  0.82759648  0.72889350     0.35300
C2909       C  0.69190782  0.58367099  0.75036398    -0.26500
C2910       C  0.71095889  0.61424049  0.72643259    -0.14500
C2911       C  0.69167603  0.62211659  0.69893748     0.36100
C2912       C  0.65404862  0.59811139  0.69450707    -0.25900
C2913       C  0.63484936  0.56651996  0.71739578    -0.15100
C2914       C  0.65438663  0.55985200  0.74619886     0.37200
N2915       N  0.63725859  0.52930336  0.77178923    -0.89400
H2916       H  0.70648037  0.57764827  0.77181720     0.18300
H2917       H  0.63983258  0.60402082  0.67249950     0.18300
N2918       N  0.71039031  0.65460911  0.67574405    -0.88400
H2919       H  0.62527579  0.50497032  0.75471584     0.35700
H2920       H  0.61766030  0.53127596  0.78785295     0.40800
H2921       H  0.72076651  0.67737446  0.69517443     0.40400
H2922       H  0.69235466  0.65631497  0.65674711     0.35300
C2923       C  0.87442688  0.56102442  0.98666580    -0.26500
C2924       C  0.89250789  0.59889851  0.98194504    -0.14500
C2925       C  0.92980741  0.61912987  0.97360293     0.36100
C2926       C  0.94779274  0.60031760  0.96618671    -0.25900
C2927       C  0.92917612  0.56186410  0.96803919    -0.15100
C2928       C  0.89248856  0.54210637  0.98045853     0.37200
N2929       N  0.87311473  0.50285621  0.98475026    -0.89400
H2930       H  0.84588754  0.54621430  0.99404451     0.18300
H2931       H  0.97609868  0.61558168  0.95784038     0.18300
N2932       N  0.94913061  0.65864030  0.47283177    -0.88400
H2933       H  0.84607651  0.99277624  0.99210332     0.35700
H2934       H  0.88458921  0.99781881  0.00943849     0.40800
H2935       H  0.93926504  0.66587401  0.44890225     0.40400
H2936       H  0.97664222  0.66935302  0.96741046     0.35300
C2937       C  0.92523820  0.83209474  0.51496883    -0.26500
C2938       C  0.92934156  0.81042054  0.98606609    -0.14500
C2939       C  0.95398741  0.82761619  0.95490033     0.36100
C2940       C  0.97140141  0.86577997  0.95136476    -0.25900
C2941       C  0.96616571  0.88709663  0.97936469    -0.15100
C2942       C  0.94349165  0.87026936  0.51209956     0.37200
N2943       N  0.93700067  0.89062160  0.54187701    -0.89400
H2944       H  0.90635091  0.81918431  0.53888671     0.18300
H2945       H  0.98803314  0.87868710  0.92589938     0.18300
N2946       N  0.96073313  0.80624927  0.92667427    -0.88400
H2947       H  0.90999718  0.88320136  0.53863158     0.35700
H2948       H  0.95301826  0.91899099  0.53801993     0.40800
H2949       H  0.97273394  0.79421178  0.94185766     0.40400
H2950       H  0.97943981  0.82317619  0.90558895     0.35300
C2951       C  0.65348860  0.60598347  0.97023507    -0.26500
C2952       C  0.63344020  0.56727446  0.96966833    -0.14500
C2953       C  0.65164731  0.54851980  0.97792400     0.36100
C2954       C  0.68953617  0.56906378  0.98464610    -0.25900
C2955       C  0.70924737  0.60756725  0.98331813    -0.15100
C2956       C  0.69088733  0.62616674  0.47625339     0.37200
N2957       N  0.70951387  0.66558999  0.47436642    -0.89400
H2958       H  0.64015996  0.62099040  0.46427559     0.18300
H2959       H  0.70404552  0.55510983  0.98957528     0.18300
N2960       N  0.63221890  0.50899481  0.97775907    -0.88400
H2961       H  0.70760629  0.67206945  0.44523035     0.35700
H2962       H  0.73706265  0.67815593  0.48116290     0.40800
H2963       H  0.61463889  0.50038538  0.00178389     0.40400
H2964       H  0.65001193  0.49978843  0.98256066     0.35300
C2965       C  0.87195081  0.68408832  0.83915625    -0.26500
C2966       C  0.84262347  0.68258302  0.81992559    -0.14500
C2967       C  0.81984524  0.69062635  0.84204237     0.36100
C2968       C  0.81962215  0.68780515  0.88280842    -0.25900
C2969       C  0.84417535  0.68094742  0.90188010    -0.15100
C2970       C  0.87426535  0.68542725  0.87996174     0.37200
N2971       N  0.90854410  0.69476407  0.89707462    -0.89400
H2972       H  0.89411213  0.68585268  0.82225632     0.18300
H2973       H  0.80160050  0.69319165  0.89976759     0.18300
N2974       N  0.79940925  0.70432267  0.82379129    -0.88400
H2975       H  0.91328314  0.67364442  0.89020734     0.35700
H2976       H  0.90980423  0.69886223  0.92753267     0.40800
H2977       H  0.81797936  0.72965747  0.81161676     0.40400
H2978       H  0.78465751  0.70941929  0.84474067     0.35300
C2979       C  0.87364839  0.68168887  0.58934450    -0.26500
C2980       C  0.84473882  0.68120561  0.56995492    -0.14500
C2981       C  0.82434067  0.69256645  0.59160061     0.36100
C2982       C  0.82614547  0.69346788  0.63244288    -0.25900
C2983       C  0.84852963  0.68403352  0.65220138    -0.15100
C2984       C  0.87645539  0.68388480  0.63034573     0.37200
N2985       N  0.90926523  0.68930031  0.64775207    -0.89400
H2986       H  0.89520639  0.68211826  0.57263877     0.18300
H2987       H  0.81019522  0.70220711  0.64855705     0.18300
N2988       N  0.80336284  0.70509180  0.57254984    -0.88400
H2989       H  0.91071716  0.66598782  0.64176096     0.35700
H2990       H  0.91071536  0.69392870  0.67819292     0.40800
H2991       H  0.81378548  0.73249501  0.58132046     0.40400
H2992       H  0.77667996  0.68963915  0.58267340     0.35300
loop_ 
_geom_bond_atom_site_label_1 
_geom_bond_atom_site_label_2 
_geom_bond_distance 
_geom_bond_site_symmetry_2 
_ccdc_geom_bond_type 
C1            C3   1.532       .  S
C1            C5   1.538       .  S
C1            C4   1.514       .  S
C1          C351   1.499       .  S
C2            C6   1.537       .  S
C2            C8   1.545       .  S
C2            C7   1.526       .  S
C2          C362   1.498       .  S
C3           C11   1.370       .  A
C3          C380   1.392       .  A
C4           C15   1.366       .  A
C4          C381   1.371       .  A
C5           C19   1.378       .  A
C5          C382   1.397       .  A
C6            C9   1.376       .  A
C6          C377   1.392   1_554  A
C7           C13   1.376       .  A
C7          C378   1.371   1_554  A
C8           C16   1.385       .  A
C8          C379   1.397   1_554  A
C9           H22   1.081       .  S
C9          N384   1.351   1_554  A
N10          C11   1.352       .  A
N10         C383   1.351       .  A
N10         C306   1.421       .  S
C11          H12   1.081       .  S
C13          H23   1.082       .  S
C13          N14   1.361   1_554  A
N14         C389   1.354       .  A
N14         C694   1.435       .  S
C15          H21   1.082       .  S
C15         N388   1.354       .  A
C16          H18   1.082       .  S
C16         N391   1.354   1_554  A
N17          C19   1.351       .  A
N17         C390   1.354       .  A
N17         C337   1.431       .  S
C19          H20   1.082       .  S
C24          C26   1.545       .  S
C24          C28   1.545       .  S
C24          C27   1.526       .  S
C24         C365   1.503       .  S
C25          C29   1.545       .  S
C25          C31   1.539       .  S
C25          C30   1.528       .  S
C25         C348   1.493       .  S
C26          C34   1.381       .  A
C26          C29   1.390       .  A
C27          C38   1.378       .  A
C27          C30   1.373       .  A
C28          C42   1.381       .  A
C28          C31   1.393       .  A
C29          C32   1.384       .  A
C30          C36   1.382       .  A
C31          C39   1.385       .  A
C32          H45   1.082       .  S
C32          N33   1.358       .  A
N33          C34   1.358       .  A
N33         C264   1.439       .  S
C34          H35   1.080       .  S
C36          H46   1.083       .  S
C36          N37   1.358       .  A
N37          C38   1.357       .  A
N37         C278   1.437       .  S
C38          H44   1.082       .  S
C39          H41   1.082       .  S
C39          N40   1.354       .  A
N40          C42   1.351       .  A
N40         C292   1.439       .  S
C42          H43   1.082       .  S
O47          C55   1.266       .  A
O47        Co815   2.014   1_545  S
O48          C56   1.247       .  A
O48         Co68   1.969       .  S
O49          C57   1.261       .  A
O49         Co69   1.962       .  S
O50          C58   1.261       .  A
O50        Co444   2.043   1_554  S
O51          C57   1.272       .  A
O51       Co1564   2.018   1_455  S
O52        C1554   1.260   1_455  A
O52        Co441   2.011   1_554  S
O53          C56   1.246       .  A
O53        Co818   1.967   1_545  S
O54          C55   1.260       .  A
O54         Co69   1.970       .  S
C55         C334   1.489       .  S
C56         C309   1.472       .  S
C57         C225   1.469       .  S
C58        O1548   1.260       .  A
C58        C2346   1.517       .  S
O59          C72   1.267       .  A
O59       Co1563   1.895       .  S
O60        C1569   1.266   1_565  A
O60         Co68   2.024   1_565  S
O61          C74   1.265       .  A
O61        Co817   2.011       .  S
O62          C75   1.300       .  A
O62         Co70   2.061       .  S
O63          C75   1.277       .  A
O63        Co816   1.895       .  S
O64          C74   1.257       .  A
O64         Co67   1.990       .  S
O65          C72   1.296       .  A
O65         Co70   2.067       .  S
O66          C73   1.270       .  A
O66         Co69   2.050       .  S
Co67        O795   2.014       .  S
Co67        O426   2.011       .  S
Co67       O1555   1.895       .  S
Co67        O819   1.948       .  S
Co68       O1547   2.018       .  S
Co68        O811   1.895       .  S
Co68       O1567   1.955       .  S
Co69        O809   2.011       .  S
Co69         O71   2.101       .  S
Co70        O424   2.043       .  S
Co70        O801   1.968       .  S
Co70       O2315   2.263       .  S
O71        Co815   1.947   1_545  S
O71       Co1564   1.955   1_455  S
O71       Co2314   2.263   1_445  S
C72         C323   1.458       .  S
C73        O1556   1.266   1_445  A
C73        C2331   1.525       .  S
C74         C250   1.477       .  S
C75         C239   1.483       .  S
O76          C84   1.266       .  A
O76        Co844   1.899       .  S
O77          C85   1.265       .  A
O77         Co97   1.976       .  S
O78          C86   1.262       .  A
O78         Co98   2.017       .  S
O79          C87   1.287       .  A
O79         Co99   2.085       .  S
O80          C86   1.255       .  A
O80       Co1593   1.970   1_455  S
O81        C1583   1.273       .  A
O81         Co96   1.996       .  S
O82          C85   1.270       .  A
O82        Co847   2.018   1_545  S
O83          C84   1.295       .  A
O83         Co98   2.093       .  S
C84         C295   1.492       .  S
C85         C267   1.499       .  S
C86         C180   1.470       .  S
C87        O1577   1.274       .  A
C87        C2317   1.525       .  S
O88         C101   1.262       .  A
O88       Co1592   2.016       .  S
O89        C1598   1.285       .  A
O89         Co97   2.079       .  S
O90         C103   1.268       .  A
O90        Co846   1.906       .  S
O91         C104   1.264       .  A
O91         Co99   1.972       .  S
O92         C104   1.271       .  A
O92        Co845   2.017       .  S
O93         C103   1.294       .  A
O93         Co96   2.098       .  S
O94         C101   1.253       .  A
O94         Co99   1.965       .  S
O95         C102   1.272   1_465  A
O95         Co98   1.993   1_565  S
Co96        O824   1.899       .  S
Co96       O1584   2.016       .  S
Co96        O848   2.037   1_455  S
Co97       O1576   1.970       .  S
Co97        O840   2.017       .  S
Co97       O1596   2.057       .  S
Co98        O838   1.906       .  S
Co98        O100   2.040   1_455  S
Co99        O830   2.018       .  S
Co99       O2344   2.056       .  S
O100       Co844   2.037   1_655  S
O100      Co1593   2.057       .  S
O100      Co2343   2.055   1_545  S
C101        C281   1.474       .  S
C102       O1585   1.285       .  A
C102       C2302   1.517       .  S
C103        C208   1.478       .  S
C104        C194   1.489       .  S
C105        C107   1.549       .  S
C105        C109   1.530       .  S
C105        C108   1.539       .  S
C105        C152   1.504       .  S
C106        C110   1.543       .  S
C106        C112   1.535       .  S
C106        C111   1.528       .  S
C106        C169   1.506       .  S
C107        C115   1.385       .  A
C107        C110   1.391       .  A
C108        C119   1.383       .  A
C108        C111   1.382       .  A
C109        C123   1.377       .  A
C109        C112   1.380       .  A
C110        C113   1.372       .  A
C111        C117   1.373       .  A
C112        C120   1.380       .  A
C113        H126   1.078       .  S
C113        N114   1.363       .  A
N114        C115   1.365       .  A
N114        C253   1.456       .  S
C115        H116   1.080       .  S
C117        H127   1.083       .  S
C117        N118   1.355       .  A
N118        C119   1.358       .  A
N118        C222   1.433       .  S
C119        H125   1.082       .  S
C120        H122   1.082       .  S
C120        N121   1.355       .  A
N121        C123   1.355       .  A
N121        C236   1.434       .  S
C123        H124   1.082       .  S
C128        C130   1.551       .  S
C128        C132   1.540       .  S
C128        C131   1.533       .  S
C128        C166   1.506       .  S
C129        C133   1.541       .  S
C129        C135   1.531       .  S
C129        C134   1.542       .  S
C129        C155   1.507       .  S
C130        C138   1.387       .  A
C130        C133   1.390       .  A
C131        C142   1.380       .  A
C131        C134   1.382       .  A
C132        C146   1.384       .  A
C132        C135   1.386       .  A
C133        C136   1.381       .  A
C134        C140   1.378       .  A
C135        C143   1.375       .  A
C136        H149   1.081       .  S
C136        N137   1.353       .  A
N137        C138   1.355       .  A
N137        C211   1.433       .  S
C138        H139   1.082       .  S
C140        H150   1.080       .  S
C140        N141   1.361       .  A
N141        C142   1.360       .  A
N141        C183   1.450       .  S
C142        H148   1.082       .  S
C143        H145   1.083       .  S
C143        N144   1.355       .  A
N144        C146   1.357       .  A
N144        C197   1.433       .  S
C146        H147   1.081       .  S
C151        C152   1.408       .  A
C151        C156   1.391       .  A
C151        H158   1.083       .  S
C152        C153   1.418       .  A
C153        C154   1.392       .  A
C153        N160   1.436       .  S
C154        C155   1.404       .  A
C154        H159   1.082       .  S
C155        C156   1.408       .  A
C156        N157   1.438       .  S
N157        H161   1.045       .  S
N157        H162   1.045       .  S
N160        H163   1.043       .  S
N160        H164   1.043       .  S
C165        C170   1.391       .  A
C165        C540   1.405       .  A
C165        H546   1.081       .  S
C166        C539   1.405       .  A
C166        C541   1.416       .  A
C167        C168   1.390       .  A
C167        C540   1.416       .  A
C167        N548   1.439       .  S
C168        C169   1.406       .  A
C168        H173   1.081       .  S
C169        C170   1.407       .  A
C170        N171   1.432       .  S
N171        H175   1.044       .  S
N171        H176   1.046       .  S
H172        C539   1.081       .  S
N174        C541   1.439       .  S
N174        H177   1.041       .  S
N174        H552   1.045       .  S
H178        N548   1.045       .  S
C179        C180   1.398       .  A
C179        C184   1.404       .  A
C179        H186   1.084       .  S
C180        C181   1.405       .  A
C181        C182   1.406       .  A
C181        N188   1.432       .  S
C182        C183   1.409       .  A
C182        H187   1.082       .  S
C183        C184   1.420       .  A
C184        N185   1.437       .  S
N185        H189   1.045       .  S
N185        H190   1.046       .  S
N188        H191   1.045       .  S
N188        H192   1.046       .  S
C193        C194   1.409       .  A
C193        C198   1.404       .  A
C193        H948   1.084       .  S
C194        C195   1.414       .  A
C195        C196   1.406       .  A
C195        N202   1.436       .  S
C196        C197   1.399       .  A
C196        H201   1.084       .  S
C197        C198   1.411       .  A
C198        N199   1.437       .  S
N199        H204   1.045       .  S
N199        H951   1.045       .  S
H200        C941   1.084   1_545  S
N202        H205   1.044       .  S
N202        H206   1.046       .  S
H203        N947   1.045       .  S
C207        C208   1.405       .  A
C207        C212   1.407       .  A
C207        H214   1.084       .  S
C208        C209   1.416       .  A
C209        C210   1.402       .  A
C209        N216   1.433       .  S
C210        C211   1.400       .  A
C210        H215   1.083       .  S
C211        C212   1.407       .  A
C212        N213   1.437       .  S
N213        H217   1.045       .  S
N213        H218   1.046       .  S
N216        H219   1.045       .  S
N216        H220   1.044       .  S
C221        C222   1.400       .  A
C221        C226   1.405       .  A
C221        H228   1.084       .  S
C222        C223   1.408       .  A
C223        C224   1.403       .  A
C223        N230   1.431       .  S
C224        C225   1.400       .  A
C224        H229   1.084       .  S
C225        C226   1.413       .  A
C226        N227   1.438       .  S
N227        H231   1.046       .  S
N227        H232   1.045       .  S
N230        H233   1.046       .  S
N230        H234   1.046       .  S
C235        C236   1.400       .  A
C235        C240   1.404       .  A
C235        H242   1.083       .  S
C236        C237   1.403       .  A
C237        C238   1.401       .  A
C237        N244   1.431       .  S
C238        C239   1.408       .  A
C238        H991   1.084       .  S
C239        C240   1.418       .  A
C240        N241   1.439       .  S
N241        H245   1.046       .  S
N241        H246   1.045       .  S
H243        C986   1.084       .  S
N244        H247   1.043       .  S
N244        H996   1.046       .  S
H248        N992   1.046       .  S
C249        C250   1.396       .  A
C249        C254   1.396       .  A
C249        H256   1.082       .  S
C250        C251   1.412       .  A
C251        C252   1.410       .  A
C251        N258   1.435       .  S
C252        C253   1.413       .  A
C252        H257   1.082       .  S
C253        C254   1.417       .  A
C254        N255   1.430       .  S
N255        H259   1.045       .  S
N255        H260   1.047       .  S
N258        H261   1.045       .  S
N258        H262   1.044       .  S
C263        C264   1.401       .  A
C263        C268   1.413       .  A
C263        H270   1.083       .  S
C264        C265   1.414       .  A
C265        C266   1.402       .  A
C265        N272   1.438       .  S
C266        C267   1.406       .  A
C266        H271   1.084       .  S
C267        C268   1.422       .  A
C268        N269   1.438   1_545  S
N269        H273   1.045       .  S
N269        H274   1.046       .  S
N272        H275   1.043       .  S
N272        H276   1.045       .  S
C277        C278   1.401       .  A
C277        C282   1.405       .  A
C277        H284   1.084       .  S
C278        C279   1.417       .  A
C279        C280   1.405       .  A
C279        N286   1.437       .  S
C280        C281   1.401       .  A
C280        H285   1.084       .  S
C281        C282   1.413       .  A
C282        N283   1.439       .  S
N283        H287   1.046       .  S
N283        H288   1.045       .  S
N286        H289   1.044       .  S
N286        H290   1.045       .  S
C291        C292   1.399       .  A
C291        C296   1.398       .  A
C291        H298   1.083       .  S
C292        C293   1.411       .  A
C293        C294   1.403       .  A
C293        N300   1.438       .  S
C294        C295   1.407       .  A
C294        H299   1.083       .  S
C295        C296   1.421       .  A
C296        N297   1.427       .  S
N297        H301   1.045       .  S
N297        H302   1.045       .  S
N300        H303   1.046       .  S
N300        H304   1.046       .  S
C305        C306   1.392       .  A
C305        C310   1.399       .  A
C305        H312   1.084       .  S
C306        C307   1.406       .  A
C307        C308   1.399       .  A
C307        N688   1.437       .  S
C308        C309   1.402       .  A
C308        H313   1.084       .  S
C309        C310   1.420       .  A
C310        N311   1.439       .  S
N311       H1063   1.046   1_545  S
N311       H1064   1.046   1_545  S
N314        C681   1.437       .  S
N314        H317   1.042       .  S
N314        H692   1.046       .  S
H315       N1059   1.046       .  S
H316       N1059   1.046       .  S
H318        N688   1.046       .  S
C319        C324   1.395       .  A
C319        C694   1.401   1_554  A
C319        H326   1.083       .  S
C320        C321   1.414       .  A
C320        C693   1.401       .  A
C320        N388   1.435       .  S
C321        C322   1.399       .  A
C321        N328   1.438       .  S
C322        C323   1.397       .  A
C322        H327   1.081       .  S
C323        C698   1.411       .  A
C324        C697   1.411   1_554  A
C324        N325   1.436       .  S
N325        H329   1.043       .  S
N325        H330   1.045       .  S
N328        H331   1.045       .  S
N328        H332   1.046       .  S
C333        C334   1.407       .  A
C333        C712   1.393       .  A
C333        H714   1.084       .  S
C334        C335   1.418       .  A
C335        C336   1.412       .  A
C335        N342   1.437       .  S
C336        C337   1.402       .  A
C336        H341   1.083       .  S
C337        C712   1.409       .  A
C338        C707   1.393       .  A
C338        C711   1.409       .  A
C338        N339   1.438       .  S
N339        H343   1.046       .  S
N339        H344   1.043       .  S
H340        C707   1.084       .  S
N342        H345   1.045       .  S
N342        H346   1.046   1_545  S
C347        C348   1.399       .  A
C347        C352   1.384       .  A
C347        H354   1.084       .  S
C348        C349   1.410       .  A
C349        C350   1.389       .  A
C349        N356   1.438       .  S
C350        C351   1.404       .  A
C350        H355   1.081       .  S
C351        C352   1.422       .  A
C352        N353   1.439       .  S
N353        H357   1.045       .  S
N353        H358   1.039       .  S
N356        H359   1.046       .  S
N356        H360   1.046       .  S
C361        C362   1.405       .  A
C361        C366   1.391       .  A
C361        H368   1.081       .  S
C362        C363   1.407       .  A
C363        C364   1.384       .  A
C363        N370   1.433       .  S
C364        C365   1.405       .  A
C364        H369   1.082       .  S
C365        C366   1.417       .  A
C366        N367   1.439       .  S
N367        H371   1.044       .  S
N367        H372   1.041       .  S
N370        H373   1.045       .  S
N370        H374   1.047       .  S
C375        C377   1.532       .  S
C375        C379   1.538       .  S
C375        C378   1.514       .  S
C375        C725   1.499       .  S
C376        C380   1.537       .  S
C376        C382   1.545       .  S
C376        C381   1.526       .  S
C376        C736   1.498       .  S
C377        C385   1.370       .  A
C378        C389   1.366       .  A
C379        C393   1.378       .  A
C380        C383   1.376       .  A
C381        C387   1.376       .  A
C382        C390   1.385       .  A
C383        H396   1.081       .  S
N384        C385   1.352       .  A
N384        C680   1.421       .  S
C385        H386   1.081       .  S
C387        H397   1.082       .  S
C387        N388   1.361       .  A
C389        H395   1.082       .  S
C390        H392   1.082       .  S
N391        C393   1.351       .  A
N391        C711   1.431       .  S
C393        H394   1.082       .  S
C398        C400   1.545       .  S
C398        C402   1.545       .  S
C398        C401   1.526       .  S
C398        C739   1.503       .  S
C399        C403   1.545       .  S
C399        C405   1.539       .  S
C399        C404   1.528       .  S
C399        C722   1.493       .  S
C400        C408   1.381       .  A
C400        C403   1.390       .  A
C401        C412   1.378       .  A
C401        C404   1.373       .  A
C402        C416   1.381       .  A
C402        C405   1.393       .  A
C403        C406   1.384       .  A
C404        C410   1.382       .  A
C405        C413   1.386       .  A
C406        H419   1.082       .  S
C406        N407   1.358       .  A
N407        C408   1.358       .  A
N407        C638   1.439       .  S
C408        H409   1.080       .  S
C410        H420   1.083       .  S
C410        N411   1.358       .  A
N411        C412   1.357       .  A
N411        C652   1.437       .  S
C412        H418   1.082       .  S
C413        H415   1.082       .  S
C413        N414   1.354       .  A
N414        C416   1.351       .  A
N414        C666   1.439       .  S
C416        H417   1.082       .  S
O421        C429   1.266       .  A
O421      Co1189   2.014   1_545  S
O422        C430   1.247       .  A
O422       Co442   1.969       .  S
O423        C431   1.261       .  A
O423       Co443   1.962       .  S
O424        C432   1.261       .  A
O425        C431   1.272       .  A
O425      Co1938   2.018   1_455  S
O426       C1928   1.260   1_455  A
O427        C430   1.246       .  A
O427      Co1192   1.967   1_545  S
O428        C429   1.260       .  A
O428       Co443   1.970       .  S
C429        C708   1.489       .  S
C430        C683   1.472       .  S
C431        C599   1.469       .  S
C432       O1922   1.260       .  A
C432       C2720   1.516       .  S
O433        C446   1.267       .  A
O433      Co1937   1.895       .  S
O434       C1943   1.266   1_565  A
O434       Co442   2.024   1_565  S
O435        C448   1.265       .  A
O435      Co1191   2.011       .  S
O436        C449   1.300       .  A
O436       Co444   2.061       .  S
O437        C449   1.277       .  A
O437      Co1190   1.895       .  S
O438        C448   1.257       .  A
O438       Co441   1.990       .  S
O439        C446   1.296       .  A
O439       Co444   2.067       .  S
O440        C447   1.270       .  A
O440       Co443   2.050       .  S
Co441      O1169   2.014       .  S
Co441      O1929   1.895       .  S
Co441      O1193   1.947       .  S
Co442      O1921   2.018       .  S
Co442      O1185   1.895       .  S
Co442      O1941   1.956       .  S
Co443      O1183   2.011       .  S
Co443       O445   2.102       .  S
Co444      O1175   1.967       .  S
Co444      O2689   2.263       .  S
O445      Co1189   1.947   1_545  S
O445      Co1938   1.955   1_455  S
O445      Co2688   2.263   1_445  S
C446        C697   1.458       .  S
C447       O1930   1.266   1_445  A
C447       C2705   1.525       .  S
C448        C624   1.477       .  S
C449        C613   1.484       .  S
O450        C458   1.266       .  A
O450      Co1218   1.899       .  S
O451        C459   1.265       .  A
O451       Co471   1.976       .  S
O452        C460   1.262       .  A
O452       Co472   2.017       .  S
O453        C461   1.287       .  A
O453       Co473   2.085       .  S
O454        C460   1.255       .  A
O454      Co1967   1.970   1_455  S
O455       C1957   1.273       .  A
O455       Co470   1.996       .  S
O456        C459   1.270       .  A
O456      Co1221   2.018   1_545  S
O457        C458   1.295       .  A
O457       Co472   2.094       .  S
C458        C669   1.492       .  S
C459        C641   1.499       .  S
C460        C554   1.470       .  S
C461       O1951   1.273       .  A
C461       C2691   1.525       .  S
O462        C475   1.262       .  A
O462      Co1966   2.016       .  S
O463       C1972   1.285       .  A
O463       Co471   2.078       .  S
O464        C477   1.268       .  A
O464      Co1220   1.906       .  S
O465        C478   1.264       .  A
O465       Co473   1.972       .  S
O466        C478   1.271       .  A
O466      Co1219   2.017       .  S
O467        C477   1.294       .  A
O467       Co470   2.098       .  S
O468        C475   1.253       .  A
O468       Co473   1.965       .  S
O469        C476   1.272   1_465  A
O469       Co472   1.993   1_565  S
Co470      O1198   1.899       .  S
Co470      O1958   2.016       .  S
Co470      O1222   2.037   1_455  S
Co471      O1950   1.970       .  S
Co471      O1214   2.017       .  S
Co471      O1970   2.057       .  S
Co472      O1212   1.906       .  S
Co472       O474   2.040   1_455  S
Co473      O1204   2.018       .  S
Co473      O2718   2.055       .  S
O474      Co1218   2.037   1_655  S
O474      Co1967   2.057       .  S
O474      Co2717   2.056   1_545  S
C475        C655   1.474       .  S
C476       O1959   1.285       .  A
C476       C2676   1.516       .  S
C477        C582   1.479       .  S
C478        C568   1.489       .  S
C479        C481   1.549       .  S
C479        C483   1.530       .  S
C479        C482   1.539       .  S
C479        C526   1.505       .  S
C480        C484   1.543       .  S
C480        C486   1.535       .  S
C480        C485   1.528       .  S
C480        C543   1.506       .  S
C481        C489   1.385       .  A
C481        C484   1.391       .  A
C482        C493   1.383       .  A
C482        C485   1.383       .  A
C483        C497   1.377       .  A
C483        C486   1.380       .  A
C484        C487   1.372       .  A
C485        C491   1.373       .  A
C486        C494   1.380       .  A
C487        H500   1.078       .  S
C487        N488   1.363       .  A
N488        C489   1.365       .  A
N488        C627   1.456       .  S
C489        H490   1.080       .  S
C491        H501   1.083       .  S
C491        N492   1.355       .  A
N492        C493   1.358       .  A
N492        C596   1.433       .  S
C493        H499   1.082       .  S
C494        H496   1.082       .  S
C494        N495   1.355       .  A
N495        C497   1.355       .  A
N495        C610   1.434       .  S
C497        H498   1.082       .  S
C502        C504   1.551       .  S
C502        C506   1.540       .  S
C502        C505   1.533       .  S
C502        C540   1.506       .  S
C503        C507   1.541       .  S
C503        C509   1.531       .  S
C503        C508   1.542       .  S
C503        C529   1.507       .  S
C504        C512   1.387       .  A
C504        C507   1.390       .  A
C505        C516   1.380       .  A
C505        C508   1.382       .  A
C506        C520   1.384       .  A
C506        C509   1.386       .  A
C507        C510   1.381       .  A
C508        C514   1.379       .  A
C509        C517   1.375       .  A
C510        H523   1.081       .  S
C510        N511   1.353       .  A
N511        C512   1.355       .  A
N511        C585   1.433       .  S
C512        H513   1.082       .  S
C514        H524   1.080       .  S
C514        N515   1.361       .  A
N515        C516   1.360       .  A
N515        C557   1.450       .  S
C516        H522   1.082       .  S
C517        H519   1.083       .  S
C517        N518   1.355       .  A
N518        C520   1.357       .  A
N518        C571   1.433       .  S
C520        H521   1.081       .  S
C525        C526   1.408       .  A
C525        C530   1.391       .  A
C525        H532   1.083       .  S
C526        C527   1.418       .  A
C527        C528   1.392       .  A
C527        N534   1.436       .  S
C528        C529   1.404       .  A
C528        H533   1.082       .  S
C529        C530   1.408       .  A
C530        N531   1.438       .  S
N531        H535   1.045       .  S
N531        H536   1.045       .  S
N534        H537   1.043       .  S
N534        H538   1.043       .  S
C539        C544   1.391   1_554  A
C541        C542   1.390   1_554  A
C542        C543   1.406       .  A
C542        H547   1.081       .  S
C543        C544   1.407       .  A
C544        N545   1.432       .  S
N545        H549   1.044       .  S
N545        H550   1.046       .  S
N548        H551   1.041       .  S
C553        C554   1.398       .  A
C553        C558   1.404       .  A
C553        H560   1.084       .  S
C554        C555   1.405       .  A
C555        C556   1.406       .  A
C555        N562   1.432       .  S
C556        C557   1.409       .  A
C556        H561   1.082       .  S
C557        C558   1.419       .  A
C558        N559   1.437       .  S
N559        H563   1.045       .  S
N559        H564   1.046       .  S
N562        H565   1.045       .  S
N562        H566   1.046       .  S
C567        C568   1.409       .  A
C567        C572   1.404       .  A
C567       H1322   1.084       .  S
C568        C569   1.414       .  A
C569        C570   1.406       .  A
C569        N576   1.436       .  S
C570        C571   1.399       .  A
C570        H575   1.084       .  S
C571        C572   1.411       .  A
C572        N573   1.437       .  S
N573       H1325   1.045       .  S
N573        H578   1.045       .  S
H574       C1315   1.084   1_545  S
N576        H579   1.044       .  S
N576        H580   1.046       .  S
H577       N1321   1.044       .  S
C581        C582   1.405       .  A
C581        C586   1.407       .  A
C581        H588   1.084       .  S
C582        C583   1.416       .  A
C583        C584   1.402       .  A
C583        N590   1.433       .  S
C584        C585   1.400       .  A
C584        H589   1.083       .  S
C585        C586   1.407       .  A
C586        N587   1.437       .  S
N587        H591   1.045       .  S
N587        H592   1.045       .  S
N590        H593   1.045       .  S
N590        H594   1.044       .  S
C595        C596   1.400       .  A
C595        C600   1.405       .  A
C595        H602   1.084       .  S
C596        C597   1.408       .  A
C597        C598   1.403       .  A
C597        N604   1.431       .  S
C598        C599   1.400       .  A
C598        H603   1.084       .  S
C599        C600   1.413       .  A
C600        N601   1.438       .  S
N601        H605   1.046       .  S
N601        H606   1.045       .  S
N604        H607   1.046       .  S
N604        H608   1.046       .  S
C609        C610   1.400       .  A
C609        C614   1.404       .  A
C609        H616   1.083       .  S
C610        C611   1.403       .  A
C611        C612   1.401       .  A
C611        N618   1.431       .  S
C612        C613   1.408       .  A
C612       H1365   1.084       .  S
C613        C614   1.418       .  A
C614        N615   1.439       .  S
N615        H619   1.046       .  S
N615        H620   1.045       .  S
H617       C1360   1.084       .  S
N618        H621   1.043       .  S
N618       H1370   1.046       .  S
H622       N1366   1.046       .  S
C623        C624   1.396       .  A
C623        C628   1.396       .  A
C623        H630   1.082       .  S
C624        C625   1.412       .  A
C625        C626   1.410       .  A
C625        N632   1.435       .  S
C626        C627   1.413       .  A
C626        H631   1.082       .  S
C627        C628   1.418       .  A
C628        N629   1.430       .  S
N629        H633   1.045       .  S
N629        H634   1.047       .  S
N632        H635   1.045       .  S
N632        H636   1.044       .  S
C637        C638   1.401       .  A
C637        C642   1.413       .  A
C637        H644   1.083       .  S
C638        C639   1.414       .  A
C639        C640   1.402       .  A
C639        N646   1.438       .  S
C640        C641   1.406       .  A
C640        H645   1.084       .  S
C641        C642   1.422       .  A
C642        N643   1.438   1_545  S
N643        H647   1.045       .  S
N643        H648   1.046       .  S
N646        H649   1.043       .  S
N646        H650   1.045       .  S
C651        C652   1.401       .  A
C651        C656   1.405       .  A
C651        H658   1.084       .  S
C652        C653   1.417       .  A
C653        C654   1.405       .  A
C653        N660   1.437       .  S
C654        C655   1.401       .  A
C654        H659   1.084       .  S
C655        C656   1.413       .  A
C656        N657   1.439       .  S
N657        H661   1.046       .  S
N657        H662   1.045       .  S
N660        H663   1.044       .  S
N660        H664   1.045       .  S
C665        C666   1.399       .  A
C665        C670   1.398       .  A
C665        H672   1.083       .  S
C666        C667   1.411       .  A
C667        C668   1.403       .  A
C667        N674   1.438       .  S
C668        C669   1.407       .  A
C668        H673   1.083       .  S
C669        C670   1.421       .  A
C670        N671   1.427       .  S
N671        H675   1.045       .  S
N671        H676   1.045       .  S
N674        H677   1.046       .  S
N674        H678   1.046       .  S
C679        C680   1.392       .  A
C679        C684   1.399       .  A
C679        H686   1.084       .  S
C680        C681   1.406       .  A
C681        C682   1.399       .  A
C682        C683   1.402       .  A
C682        H687   1.084       .  S
C683        C684   1.420       .  A
C684        N685   1.439       .  S
N685       H1437   1.046   1_545  S
N685       H1438   1.046   1_546  S
N688        H691   1.042       .  S
H689       N1433   1.046       .  S
H690       N1433   1.046   1_554  S
C693        C698   1.395       .  A
C693        H700   1.083       .  S
C694        C695   1.414       .  A
C695        C696   1.399       .  A
C695        N702   1.438       .  S
C696        C697   1.397       .  A
C696        H701   1.081       .  S
C698        N699   1.436       .  S
N699        H703   1.043       .  S
N699        H704   1.045       .  S
N702        H705   1.045       .  S
N702        H706   1.046       .  S
C707        C708   1.407       .  A
C708        C709   1.418       .  A
C709        C710   1.412       .  A
C709        N716   1.437       .  S
C710        C711   1.402       .  A
C710        H715   1.083       .  S
C712        N713   1.438       .  S
N713        H717   1.046       .  S
N713        H718   1.043       .  S
N716        H719   1.045   1_556  S
N716        H720   1.046   1_545  S
C721        C722   1.399       .  A
C721        C726   1.384       .  A
C721        H728   1.084       .  S
C722        C723   1.410       .  A
C723        C724   1.388       .  A
C723        N730   1.438       .  S
C724        C725   1.404       .  A
C724        H729   1.081       .  S
C725        C726   1.422       .  A
C726        N727   1.439       .  S
N727        H731   1.045       .  S
N727        H732   1.039       .  S
N730        H733   1.046       .  S
N730        H734   1.046       .  S
C735        C736   1.405       .  A
C735        C740   1.391       .  A
C735        H742   1.081       .  S
C736        C737   1.407       .  A
C737        C738   1.384       .  A
C737        N744   1.433       .  S
C738        C739   1.405       .  A
C738        H743   1.082       .  S
C739        C740   1.417       .  A
C740        N741   1.439       .  S
N741        H745   1.045       .  S
N741        H746   1.041       .  S
N744        H747   1.045       .  S
N744        H748   1.047       .  S
C749        C751   1.532       .  S
C749        C753   1.538       .  S
C749        C752   1.514       .  S
C749       C1099   1.499       .  S
C750        C754   1.537       .  S
C750        C756   1.545       .  S
C750        C755   1.526       .  S
C750       C1110   1.498       .  S
C751        C759   1.370       .  A
C751       C1128   1.392       .  A
C752        C763   1.366       .  A
C752       C1129   1.371       .  A
C753        C767   1.378       .  A
C753       C1130   1.397       .  A
C754       C1125   1.392   1_554  A
C754        C757   1.376       .  A
C755       C1126   1.371   1_554  A
C755        C761   1.376       .  A
C756       C1127   1.397   1_554  A
C756        C764   1.385       .  A
C757        H770   1.081       .  S
C757       N1132   1.351   1_554  A
N758       C1131   1.351       .  A
N758        C759   1.352       .  A
N758       C1054   1.421       .  S
C759        H760   1.081       .  S
C761        H771   1.082       .  S
C761        N762   1.361   1_554  A
N762       C1137   1.354       .  A
N762       C1442   1.435       .  S
C763        H769   1.082       .  S
C763       N1136   1.354       .  A
C764        H766   1.082       .  S
C764       N1139   1.354   1_554  A
N765       C1138   1.354       .  A
N765        C767   1.351       .  A
N765       C1085   1.431       .  S
C767        H768   1.082       .  S
C772        C774   1.545       .  S
C772        C776   1.546       .  S
C772        C775   1.526       .  S
C772       C1113   1.503       .  S
C773        C777   1.545       .  S
C773        C779   1.539       .  S
C773        C778   1.528       .  S
C773       C1096   1.493       .  S
C774        C782   1.381       .  A
C774        C777   1.390       .  A
C775        C786   1.378       .  A
C775        C778   1.373       .  A
C776        C790   1.381       .  A
C776        C779   1.393       .  A
C777        C780   1.384       .  A
C778        C784   1.381       .  A
C779        C787   1.385       .  A
C780        H793   1.082       .  S
C780        N781   1.358       .  A
N781        C782   1.358       .  A
N781       C1012   1.439       .  S
C782        H783   1.080       .  S
C784        H794   1.083       .  S
C784        N785   1.358       .  A
N785        C786   1.357       .  A
N785       C1026   1.437       .  S
C786        H792   1.082       .  S
C787        H789   1.082       .  S
C787        N788   1.354       .  A
N788        C790   1.351       .  A
N788       C1040   1.439       .  S
C790        H791   1.082       .  S
O795        C803   1.266       .  A
O796        C804   1.247       .  A
O796       Co816   1.969       .  S
O797        C805   1.261       .  A
O797       Co817   1.962       .  S
O798        C806   1.261   1_565  A
O798      Co1192   2.043   1_554  S
O799        C805   1.272       .  A
O799      Co2312   2.018   1_455  S
O800       C2302   1.260   1_455  A
O800      Co1189   2.011   1_544  S
O801        C804   1.246       .  A
O802        C803   1.261       .  A
O802       Co817   1.970       .  S
C803       C1082   1.489       .  S
C804       C1057   1.472       .  S
C805        C973   1.469       .  S
C806       O2296   1.260       .  A
C806       C1598   1.517       .  S
O807        C820   1.267       .  A
O807      Co2311   1.895       .  S
O808       C2317   1.266       .  A
O808       Co816   2.024       .  S
O809        C822   1.265   1_545  A
O810        C823   1.300       .  A
O810       Co818   2.061       .  S
O811        C823   1.277   1_545  A
O812        C822   1.257       .  A
O812       Co815   1.990       .  S
O813        C820   1.296       .  A
O813       Co818   2.067       .  S
O814        C821   1.270       .  A
O814       Co817   2.050       .  S
Co815      O1174   2.011   1_565  S
Co815      O2303   1.895       .  S
Co816      O2295   2.017       .  S
Co816      O2315   1.955       .  S
Co817       O819   2.101       .  S
Co818      O1172   2.043       .  S
Co818      O1567   2.263   1_565  S
O819      Co2312   1.956   1_455  S
O819      Co1566   2.263   1_455  S
C820       C1071   1.457       .  S
C821       O2304   1.266   1_455  A
C821       C1583   1.525       .  S
C822        C998   1.477       .  S
C823        C987   1.483       .  S
O824        C832   1.266       .  A
O825        C833   1.265       .  A
O825       Co845   1.977       .  S
O826        C834   1.262       .  A
O826       Co846   2.017       .  S
O827        C835   1.287   1_565  A
O827       Co847   2.085       .  S
O828        C834   1.255       .  A
O828      Co2341   1.970   1_455  S
O829       C2331   1.273       .  A
O829       Co844   1.996       .  S
O830        C833   1.270       .  A
O831        C832   1.295       .  A
O831       Co846   2.093       .  S
C832       C1043   1.492       .  S
C833       C1015   1.499       .  S
C834        C928   1.470       .  S
C835       O2325   1.273       .  A
C835       C1569   1.525       .  S
O836        C849   1.262       .  A
O836      Co2340   2.016   1_565  S
O837       C2346   1.285       .  A
O837       Co845   2.079       .  S
O838        C851   1.268   1_545  A
O839        C852   1.264       .  A
O839       Co847   1.972       .  S
O840        C852   1.271   1_545  A
O841        C851   1.294       .  A
O841       Co844   2.098   1_565  S
O842        C849   1.253       .  A
O842       Co847   1.965       .  S
O843        C850   1.272   1_455  A
O843       Co846   1.993       .  S
Co844      O2332   2.016   1_545  S
Co845      O2324   1.970       .  S
Co845      O2344   2.057       .  S
Co846       O848   2.040   1_455  S
Co847      O1596   2.056   1_565  S
O848      Co2341   2.057       .  S
O848      Co1595   2.056       .  S
C849       C1029   1.474       .  S
C850       O2333   1.285       .  A
C850       C1554   1.517       .  S
C851        C956   1.478       .  S
C852        C942   1.489       .  S
C853        C855   1.549       .  S
C853        C857   1.530       .  S
C853        C856   1.539       .  S
C853        C900   1.504       .  S
C854        C858   1.543       .  S
C854        C860   1.535       .  S
C854        C859   1.528       .  S
C854        C917   1.506       .  S
C855        C863   1.385       .  A
C855        C858   1.391       .  A
C856        C867   1.383       .  A
C856        C859   1.383       .  A
C857        C871   1.377       .  A
C857        C860   1.380       .  A
C858        C861   1.372       .  A
C859        C865   1.373       .  A
C860        C868   1.380       .  A
C861        H874   1.078       .  S
C861        N862   1.363       .  A
N862        C863   1.365       .  A
N862       C1001   1.456       .  S
C863        H864   1.080       .  S
C865        H875   1.083       .  S
C865        N866   1.355       .  A
N866        C867   1.358       .  A
N866        C970   1.433       .  S
C867        H873   1.082       .  S
C868        H870   1.082       .  S
C868        N869   1.355       .  A
N869        C871   1.355       .  A
N869        C984   1.434       .  S
C871        H872   1.082       .  S
C876        C878   1.551       .  S
C876        C880   1.540       .  S
C876        C879   1.533       .  S
C876        C914   1.506       .  S
C877        C881   1.540       .  S
C877        C883   1.531       .  S
C877        C882   1.542       .  S
C877        C903   1.507       .  S
C878        C886   1.387       .  A
C878        C881   1.390       .  A
C879        C890   1.380       .  A
C879        C882   1.382       .  A
C880        C894   1.384       .  A
C880        C883   1.386       .  A
C881        C884   1.381       .  A
C882        C888   1.379       .  A
C883        C891   1.375       .  A
C884        H897   1.081       .  S
C884        N885   1.353       .  A
N885        C886   1.355       .  A
N885        C959   1.433       .  S
C886        H887   1.082       .  S
C888        H898   1.080       .  S
C888        N889   1.361       .  A
N889        C890   1.361       .  A
N889        C931   1.450       .  S
C890        H896   1.082       .  S
C891        H893   1.083       .  S
C891        N892   1.355       .  A
N892        C894   1.357       .  A
N892        C945   1.433       .  S
C894        H895   1.081       .  S
C899        C900   1.408       .  A
C899        C904   1.391       .  A
C899        H906   1.083       .  S
C900        C901   1.418       .  A
C901        C902   1.392       .  A
C901        N908   1.436       .  S
C902        C903   1.404       .  A
C902        H907   1.082       .  S
C903        C904   1.407       .  A
C904        N905   1.438       .  S
N905        H909   1.045       .  S
N905        H910   1.045       .  S
N908        H911   1.043       .  S
N908        H912   1.043       .  S
C913       C1288   1.405       .  A
C913        C918   1.391       .  A
C913       H1294   1.081       .  S
C914       C1287   1.405       .  A
C914       C1289   1.416       .  A
C915       C1288   1.416       .  A
C915        C916   1.390       .  A
C915       N1296   1.439       .  S
C916        C917   1.406       .  A
C916        H921   1.081       .  S
C917        C918   1.407       .  A
C918        N919   1.432       .  S
N919        H923   1.044       .  S
N919        H924   1.046       .  S
H920       C1287   1.081       .  S
N922       C1289   1.439       .  S
N922        H925   1.041       .  S
N922       H1300   1.045       .  S
H926       N1296   1.045       .  S
C927        C928   1.398       .  A
C927        C932   1.404       .  A
C927        H934   1.084       .  S
C928        C929   1.405       .  A
C929        C930   1.407       .  A
C929        N936   1.432       .  S
C930        C931   1.409       .  A
C930        H935   1.082       .  S
C931        C932   1.420       .  A
C932        N933   1.437       .  S
N933        H937   1.045       .  S
N933        H938   1.046       .  S
N936        H939   1.045       .  S
N936        H940   1.046       .  S
C941        C942   1.409       .  A
C941        C946   1.404       .  A
C942        C943   1.414       .  A
C943        C944   1.406       .  A
C943        N950   1.436       .  S
C944        C945   1.399       .  A
C944        H949   1.084       .  S
C945        C946   1.411       .  A
C946        N947   1.437       .  S
N947        H952   1.045       .  S
N950        H953   1.044       .  S
N950        H954   1.046       .  S
C955        C956   1.405       .  A
C955        C960   1.407       .  A
C955        H962   1.084       .  S
C956        C957   1.416       .  A
C957        C958   1.402       .  A
C957        N964   1.433       .  S
C958        C959   1.400       .  A
C958        H963   1.083       .  S
C959        C960   1.407       .  A
C960        N961   1.437       .  S
N961        H965   1.045       .  S
N961        H966   1.046       .  S
N964        H967   1.045       .  S
N964        H968   1.044       .  S
C969        C970   1.400       .  A
C969        C974   1.405       .  A
C969        H976   1.084       .  S
C970        C971   1.408       .  A
C971        C972   1.403       .  A
C971        N978   1.431       .  S
C972        C973   1.400       .  A
C972        H977   1.084       .  S
C973        C974   1.413       .  A
C974        N975   1.438       .  S
N975        H979   1.046       .  S
N975        H980   1.045       .  S
N978        H981   1.046       .  S
N978        H982   1.046       .  S
C983        C984   1.400       .  A
C983        C988   1.404       .  A
C983        H990   1.083       .  S
C984        C985   1.403       .  A
C985        C986   1.401       .  A
C985        N992   1.431       .  S
C986        C987   1.408       .  A
C987        C988   1.418       .  A
C988        N989   1.439       .  S
N989        H993   1.046       .  S
N989        H994   1.045       .  S
N992        H995   1.043       .  S
C997        C998   1.396       .  A
C997       C1002   1.396       .  A
C997       H1004   1.082       .  S
C998        C999   1.412       .  A
C999       C1000   1.410       .  A
C999       N1006   1.435       .  S
C1000      C1001   1.413       .  A
C1000      H1005   1.082       .  S
C1001      C1002   1.417       .  A
C1002      N1003   1.430       .  S
N1003      H1007   1.045       .  S
N1003      H1008   1.047       .  S
N1006      H1009   1.045       .  S
N1006      H1010   1.044       .  S
C1011      C1012   1.401       .  A
C1011      C1016   1.413       .  A
C1011      H1018   1.083       .  S
C1012      C1013   1.414       .  A
C1013      C1014   1.402       .  A
C1013      N1020   1.438       .  S
C1014      C1015   1.406       .  A
C1014      H1019   1.084       .  S
C1015      C1016   1.422       .  A
C1016      N1017   1.438       .  S
N1017      H1021   1.045       .  S
N1017      H1022   1.046       .  S
N1020      H1023   1.043       .  S
N1020      H1024   1.045       .  S
C1025      C1026   1.401       .  A
C1025      C1030   1.405       .  A
C1025      H1032   1.084       .  S
C1026      C1027   1.417       .  A
C1027      C1028   1.405       .  A
C1027      N1034   1.437       .  S
C1028      C1029   1.401       .  A
C1028      H1033   1.084       .  S
C1029      C1030   1.413       .  A
C1030      N1031   1.439       .  S
N1031      H1035   1.046       .  S
N1031      H1036   1.045       .  S
N1034      H1037   1.044       .  S
N1034      H1038   1.045       .  S
C1039      C1040   1.399       .  A
C1039      C1044   1.398       .  A
C1039      H1046   1.083       .  S
C1040      C1041   1.411       .  A
C1041      C1042   1.403       .  A
C1041      N1048   1.438       .  S
C1042      C1043   1.407       .  A
C1042      H1047   1.083       .  S
C1043      C1044   1.421       .  A
C1044      N1045   1.427       .  S
N1045      H1049   1.045       .  S
N1045      H1050   1.045       .  S
N1048      H1051   1.046       .  S
N1048      H1052   1.046       .  S
C1053      C1054   1.392       .  A
C1053      C1058   1.399       .  A
C1053      H1060   1.084       .  S
C1054      C1055   1.406       .  A
C1055      C1056   1.399       .  A
C1055      N1436   1.437       .  S
C1056      C1057   1.402       .  A
C1056      H1061   1.084       .  S
C1057      C1058   1.420       .  A
C1058      N1059   1.439       .  S
N1062      C1429   1.437       .  S
N1062      H1065   1.042       .  S
N1062      H1440   1.046       .  S
H1066      N1436   1.046       .  S
C1067      C1442   1.401   1_554  A
C1067      C1072   1.395       .  A
C1067      H1074   1.083       .  S
C1068      C1441   1.401       .  A
C1068      C1069   1.414       .  A
C1068      N1136   1.435       .  S
C1069      C1070   1.399       .  A
C1069      N1076   1.438       .  S
C1070      C1071   1.397       .  A
C1070      H1075   1.081       .  S
C1071      C1446   1.411       .  A
C1072      C1445   1.411   1_554  A
C1072      N1073   1.436       .  S
N1073      H1077   1.043       .  S
N1073      H1078   1.045       .  S
N1076      H1079   1.045       .  S
N1076      H1080   1.046       .  S
C1081      C1082   1.407       .  A
C1081      C1460   1.393       .  A
C1081      H1462   1.084       .  S
C1082      C1083   1.418       .  A
C1083      C1084   1.412       .  A
C1083      N1090   1.437       .  S
C1084      C1085   1.402       .  A
C1084      H1089   1.083       .  S
C1085      C1460   1.409       .  A
C1086      C1455   1.393       .  A
C1086      C1459   1.409       .  A
C1086      N1087   1.438       .  S
N1087      H1091   1.046       .  S
N1087      H1092   1.043       .  S
H1088      C1455   1.084       .  S
N1090      H1093   1.045       .  S
N1090      H1094   1.046       .  S
C1095      C1096   1.399       .  A
C1095      C1100   1.384       .  A
C1095      H1102   1.084       .  S
C1096      C1097   1.410       .  A
C1097      C1098   1.389       .  A
C1097      N1104   1.438       .  S
C1098      C1099   1.404       .  A
C1098      H1103   1.081       .  S
C1099      C1100   1.422       .  A
C1100      N1101   1.439       .  S
N1101      H1105   1.045       .  S
N1101      H1106   1.039       .  S
N1104      H1107   1.046       .  S
N1104      H1108   1.046       .  S
C1109      C1110   1.405       .  A
C1109      C1114   1.391       .  A
C1109      H1116   1.081       .  S
C1110      C1111   1.407       .  A
C1111      C1112   1.384       .  A
C1111      N1118   1.433       .  S
C1112      C1113   1.405       .  A
C1112      H1117   1.082       .  S
C1113      C1114   1.417       .  A
C1114      N1115   1.439       .  S
N1115      H1119   1.045       .  S
N1115      H1120   1.041       .  S
N1118      H1121   1.045       .  S
N1118      H1122   1.047       .  S
C1123      C1125   1.532       .  S
C1123      C1127   1.538       .  S
C1123      C1126   1.514       .  S
C1123      C1473   1.499       .  S
C1124      C1128   1.537       .  S
C1124      C1130   1.545       .  S
C1124      C1129   1.526       .  S
C1124      C1484   1.498       .  S
C1125      C1133   1.370       .  A
C1126      C1137   1.366       .  A
C1127      C1141   1.378       .  A
C1128      C1131   1.376       .  A
C1129      C1135   1.376       .  A
C1130      C1138   1.385       .  A
C1131      H1144   1.081       .  S
N1132      C1133   1.352       .  A
N1132      C1428   1.421       .  S
C1133      H1134   1.081       .  S
C1135      H1145   1.082       .  S
C1135      N1136   1.361       .  A
C1137      H1143   1.082       .  S
C1138      H1140   1.082       .  S
N1139      C1141   1.351       .  A
N1139      C1459   1.431       .  S
C1141      H1142   1.082       .  S
C1146      C1148   1.545       .  S
C1146      C1150   1.545       .  S
C1146      C1149   1.526       .  S
C1146      C1487   1.503       .  S
C1147      C1151   1.545       .  S
C1147      C1153   1.539       .  S
C1147      C1152   1.528       .  S
C1147      C1470   1.493       .  S
C1148      C1156   1.381       .  A
C1148      C1151   1.390       .  A
C1149      C1160   1.378       .  A
C1149      C1152   1.373       .  A
C1150      C1164   1.381       .  A
C1150      C1153   1.393       .  A
C1151      C1154   1.384       .  A
C1152      C1158   1.381       .  A
C1153      C1161   1.386       .  A
C1154      H1167   1.082       .  S
C1154      N1155   1.357       .  A
N1155      C1156   1.358       .  A
N1155      C1386   1.439       .  S
C1156      H1157   1.080       .  S
C1158      H1168   1.083       .  S
C1158      N1159   1.358       .  A
N1159      C1160   1.357       .  A
N1159      C1400   1.437       .  S
C1160      H1166   1.082       .  S
C1161      H1163   1.082       .  S
C1161      N1162   1.354       .  A
N1162      C1164   1.351       .  A
N1162      C1414   1.439       .  S
C1164      H1165   1.082       .  S
O1169      C1177   1.266       .  A
O1170      C1178   1.247       .  A
O1170     Co1190   1.969       .  S
O1171      C1179   1.261       .  A
O1171     Co1191   1.962       .  S
O1172      C1180   1.261   1_565  A
O1173      C1179   1.272       .  A
O1173     Co2686   2.018   1_455  S
O1174      C2676   1.260   1_455  A
O1175      C1178   1.246       .  A
O1176      C1177   1.260       .  A
O1176     Co1191   1.970       .  S
C1177      C1456   1.489       .  S
C1178      C1431   1.472       .  S
C1179      C1347   1.469       .  S
C1180      O2670   1.260       .  A
C1180      C1972   1.516       .  S
O1181      C1194   1.266       .  A
O1181     Co2685   1.895       .  S
O1182      C2691   1.266       .  A
O1182     Co1190   2.024       .  S
O1183      C1196   1.265   1_545  A
O1184      C1197   1.300       .  A
O1184     Co1192   2.061       .  S
O1185      C1197   1.277   1_545  A
O1186      C1196   1.257       .  A
O1186     Co1189   1.990       .  S
O1187      C1194   1.296       .  A
O1187     Co1192   2.067       .  S
O1188      C1195   1.270       .  A
O1188     Co1191   2.050       .  S
Co1189     O2677   1.895       .  S
Co1190     O2669   2.018       .  S
Co1190     O2689   1.955       .  S
Co1191     O1193   2.102       .  S
Co1192     O1941   2.263   1_565  S
O1193     Co2686   1.955   1_455  S
O1193     Co1940   2.263   1_455  S
C1194      C1445   1.457       .  S
C1195      O2678   1.266   1_455  A
C1195      C1957   1.526       .  S
C1196      C1372   1.477       .  S
C1197      C1361   1.484       .  S
O1198      C1206   1.266       .  A
O1199      C1207   1.265       .  A
O1199     Co1219   1.976       .  S
O1200      C1208   1.262       .  A
O1200     Co1220   2.017       .  S
O1201      C1209   1.287   1_565  A
O1201     Co1221   2.085       .  S
O1202      C1208   1.255       .  A
O1202     Co2715   1.970   1_455  S
O1203      C2705   1.274       .  A
O1203     Co1218   1.996       .  S
O1204      C1207   1.270       .  A
O1205      C1206   1.295       .  A
O1205     Co1220   2.093       .  S
C1206      C1417   1.492       .  S
C1207      C1389   1.499       .  S
C1208      C1302   1.470       .  S
C1209      O2699   1.273       .  A
C1209      C1943   1.526       .  S
O1210      C1223   1.262       .  A
O1210     Co2714   2.016   1_565  S
O1211      C2720   1.285       .  A
O1211     Co1219   2.078       .  S
O1212      C1225   1.268   1_545  A
O1213      C1226   1.264       .  A
O1213     Co1221   1.972       .  S
O1214      C1226   1.271   1_545  A
O1215      C1225   1.294       .  A
O1215     Co1218   2.098   1_565  S
O1216      C1223   1.253       .  A
O1216     Co1221   1.965       .  S
O1217      C1224   1.272   1_455  A
O1217     Co1220   1.993       .  S
Co1218     O2706   2.016   1_545  S
Co1219     O2698   1.970       .  S
Co1219     O2718   2.057       .  S
Co1220     O1222   2.040   1_455  S
Co1221     O1970   2.055   1_565  S
O1222     Co2715   2.057       .  S
O1222     Co1969   2.056       .  S
C1223      C1403   1.474       .  S
C1224      O2707   1.285       .  A
C1224      C1928   1.516       .  S
C1225      C1330   1.478       .  S
C1226      C1316   1.489       .  S
C1227      C1229   1.549       .  S
C1227      C1231   1.530       .  S
C1227      C1230   1.539       .  S
C1227      C1274   1.505       .  S
C1228      C1232   1.543       .  S
C1228      C1234   1.535       .  S
C1228      C1233   1.528       .  S
C1228      C1291   1.506       .  S
C1229      C1237   1.385       .  A
C1229      C1232   1.391       .  A
C1230      C1241   1.383       .  A
C1230      C1233   1.383       .  A
C1231      C1245   1.377       .  A
C1231      C1234   1.380       .  A
C1232      C1235   1.372       .  A
C1233      C1239   1.373       .  A
C1234      C1242   1.380       .  A
C1235      H1248   1.078       .  S
C1235      N1236   1.363       .  A
N1236      C1237   1.365       .  A
N1236      C1375   1.456       .  S
C1237      H1238   1.080       .  S
C1239      H1249   1.083       .  S
C1239      N1240   1.355       .  A
N1240      C1241   1.358       .  A
N1240      C1344   1.433       .  S
C1241      H1247   1.082       .  S
C1242      H1244   1.082       .  S
C1242      N1243   1.355       .  A
N1243      C1245   1.355       .  A
N1243      C1358   1.434       .  S
C1245      H1246   1.082       .  S
C1250      C1252   1.551       .  S
C1250      C1254   1.540       .  S
C1250      C1253   1.533       .  S
C1250      C1288   1.506       .  S
C1251      C1255   1.541       .  S
C1251      C1257   1.531       .  S
C1251      C1256   1.542       .  S
C1251      C1277   1.507       .  S
C1252      C1260   1.387       .  A
C1252      C1255   1.390       .  A
C1253      C1264   1.380       .  A
C1253      C1256   1.382       .  A
C1254      C1268   1.384       .  A
C1254      C1257   1.386       .  A
C1255      C1258   1.381       .  A
C1256      C1262   1.379       .  A
C1257      C1265   1.375       .  A
C1258      H1271   1.081       .  S
C1258      N1259   1.353       .  A
N1259      C1260   1.355       .  A
N1259      C1333   1.433       .  S
C1260      H1261   1.082       .  S
C1262      H1272   1.080       .  S
C1262      N1263   1.361       .  A
N1263      C1264   1.360       .  A
N1263      C1305   1.450       .  S
C1264      H1270   1.082       .  S
C1265      H1267   1.083       .  S
C1265      N1266   1.355       .  A
N1266      C1268   1.357       .  A
N1266      C1319   1.433       .  S
C1268      H1269   1.081       .  S
C1273      C1274   1.408       .  A
C1273      C1278   1.391       .  A
C1273      H1280   1.083       .  S
C1274      C1275   1.418       .  A
C1275      C1276   1.392       .  A
C1275      N1282   1.436       .  S
C1276      C1277   1.404       .  A
C1276      H1281   1.082       .  S
C1277      C1278   1.407       .  A
C1278      N1279   1.438       .  S
N1279      H1283   1.045       .  S
N1279      H1284   1.045       .  S
N1282      H1285   1.043       .  S
N1282      H1286   1.043       .  S
C1287      C1292   1.391   1_554  A
C1289      C1290   1.390   1_554  A
C1290      C1291   1.406       .  A
C1290      H1295   1.081       .  S
C1291      C1292   1.407       .  A
C1292      N1293   1.432       .  S
N1293      H1297   1.044       .  S
N1293      H1298   1.046       .  S
N1296      H1299   1.041       .  S
C1301      C1302   1.398       .  A
C1301      C1306   1.404       .  A
C1301      H1308   1.084       .  S
C1302      C1303   1.405       .  A
C1303      C1304   1.407       .  A
C1303      N1310   1.432       .  S
C1304      C1305   1.409       .  A
C1304      H1309   1.082       .  S
C1305      C1306   1.420       .  A
C1306      N1307   1.437       .  S
N1307      H1311   1.045       .  S
N1307      H1312   1.046       .  S
N1310      H1313   1.045       .  S
N1310      H1314   1.046       .  S
C1315      C1316   1.409       .  A
C1315      C1320   1.404       .  A
C1316      C1317   1.414       .  A
C1317      C1318   1.406       .  A
C1317      N1324   1.436       .  S
C1318      C1319   1.399       .  A
C1318      H1323   1.084       .  S
C1319      C1320   1.411       .  A
C1320      N1321   1.437       .  S
N1321      H1326   1.045       .  S
N1324      H1327   1.043       .  S
N1324      H1328   1.046       .  S
C1329      C1330   1.405       .  A
C1329      C1334   1.407       .  A
C1329      H1336   1.084       .  S
C1330      C1331   1.416       .  A
C1331      C1332   1.402       .  A
C1331      N1338   1.433       .  S
C1332      C1333   1.400       .  A
C1332      H1337   1.083       .  S
C1333      C1334   1.407       .  A
C1334      N1335   1.437       .  S
N1335      H1339   1.045       .  S
N1335      H1340   1.046       .  S
N1338      H1341   1.045       .  S
N1338      H1342   1.044       .  S
C1343      C1344   1.400       .  A
C1343      C1348   1.405       .  A
C1343      H1350   1.084       .  S
C1344      C1345   1.408       .  A
C1345      C1346   1.403       .  A
C1345      N1352   1.431       .  S
C1346      C1347   1.400       .  A
C1346      H1351   1.084       .  S
C1347      C1348   1.413       .  A
C1348      N1349   1.438       .  S
N1349      H1353   1.046       .  S
N1349      H1354   1.045       .  S
N1352      H1355   1.046       .  S
N1352      H1356   1.045       .  S
C1357      C1358   1.400       .  A
C1357      C1362   1.404       .  A
C1357      H1364   1.083       .  S
C1358      C1359   1.403       .  A
C1359      C1360   1.401       .  A
C1359      N1366   1.431       .  S
C1360      C1361   1.408       .  A
C1361      C1362   1.418       .  A
C1362      N1363   1.439       .  S
N1363      H1367   1.046       .  S
N1363      H1368   1.045       .  S
N1366      H1369   1.043       .  S
C1371      C1372   1.396       .  A
C1371      C1376   1.396       .  A
C1371      H1378   1.082       .  S
C1372      C1373   1.412       .  A
C1373      C1374   1.410       .  A
C1373      N1380   1.435       .  S
C1374      C1375   1.413       .  A
C1374      H1379   1.082       .  S
C1375      C1376   1.418       .  A
C1376      N1377   1.430       .  S
N1377      H1381   1.045       .  S
N1377      H1382   1.047       .  S
N1380      H1383   1.045       .  S
N1380      H1384   1.044       .  S
C1385      C1386   1.401       .  A
C1385      C1390   1.413       .  A
C1385      H1392   1.083       .  S
C1386      C1387   1.414       .  A
C1387      C1388   1.402       .  A
C1387      N1394   1.438       .  S
C1388      C1389   1.406       .  A
C1388      H1393   1.084       .  S
C1389      C1390   1.422       .  A
C1390      N1391   1.438       .  S
N1391      H1395   1.045       .  S
N1391      H1396   1.046       .  S
N1394      H1397   1.043       .  S
N1394      H1398   1.045       .  S
C1399      C1400   1.401       .  A
C1399      C1404   1.404       .  A
C1399      H1406   1.084       .  S
C1400      C1401   1.417       .  A
C1401      C1402   1.405       .  A
C1401      N1408   1.437       .  S
C1402      C1403   1.401       .  A
C1402      H1407   1.084       .  S
C1403      C1404   1.413       .  A
C1404      N1405   1.439       .  S
N1405      H1409   1.046       .  S
N1405      H1410   1.045       .  S
N1408      H1411   1.044       .  S
N1408      H1412   1.045       .  S
C1413      C1414   1.399       .  A
C1413      C1418   1.398       .  A
C1413      H1420   1.083       .  S
C1414      C1415   1.411       .  A
C1415      C1416   1.403       .  A
C1415      N1422   1.438       .  S
C1416      C1417   1.407       .  A
C1416      H1421   1.083       .  S
C1417      C1418   1.421       .  A
C1418      N1419   1.427       .  S
N1419      H1423   1.045       .  S
N1419      H1424   1.045       .  S
N1422      H1425   1.046       .  S
N1422      H1426   1.046       .  S
C1427      C1428   1.392       .  A
C1427      C1432   1.399       .  A
C1427      H1434   1.084       .  S
C1428      C1429   1.406       .  A
C1429      C1430   1.399       .  A
C1430      C1431   1.402       .  A
C1430      H1435   1.084       .  S
C1431      C1432   1.420       .  A
C1432      N1433   1.439       .  S
N1436      H1439   1.042       .  S
C1441      C1446   1.395       .  A
C1441      H1448   1.083       .  S
C1442      C1443   1.414       .  A
C1443      C1444   1.399       .  A
C1443      N1450   1.438       .  S
C1444      C1445   1.397       .  A
C1444      H1449   1.081       .  S
C1446      N1447   1.436       .  S
N1447      H1451   1.043       .  S
N1447      H1452   1.045       .  S
N1450      H1453   1.045       .  S
N1450      H1454   1.046       .  S
C1455      C1456   1.407       .  A
C1456      C1457   1.418       .  A
C1457      C1458   1.412       .  A
C1457      N1464   1.437       .  S
C1458      C1459   1.402       .  A
C1458      H1463   1.083       .  S
C1460      N1461   1.438       .  S
N1461      H1465   1.046       .  S
N1461      H1466   1.043       .  S
N1464      H1467   1.045   1_556  S
N1464      H1468   1.046       .  S
C1469      C1470   1.399       .  A
C1469      C1474   1.384       .  A
C1469      H1476   1.084       .  S
C1470      C1471   1.410       .  A
C1471      C1472   1.388       .  A
C1471      N1478   1.438       .  S
C1472      C1473   1.404       .  A
C1472      H1477   1.081       .  S
C1473      C1474   1.422       .  A
C1474      N1475   1.439       .  S
N1475      H1479   1.045       .  S
N1475      H1480   1.039       .  S
N1478      H1481   1.046       .  S
N1478      H1482   1.046       .  S
C1483      C1484   1.405       .  A
C1483      C1488   1.391       .  A
C1483      H1490   1.081       .  S
C1484      C1485   1.407       .  A
C1485      C1486   1.384       .  A
C1485      N1492   1.433       .  S
C1486      C1487   1.405       .  A
C1486      H1491   1.082       .  S
C1487      C1488   1.417       .  A
C1488      N1489   1.439       .  S
N1489      H1493   1.045       .  S
N1489      H1494   1.041       .  S
N1492      H1495   1.045       .  S
N1492      H1496   1.047       .  S
C1497      C1499   1.532       .  S
C1497      C1501   1.538       .  S
C1497      C1500   1.514       .  S
C1497      C1847   1.499       .  S
C1498      C1502   1.537       .  S
C1498      C1504   1.545       .  S
C1498      C1503   1.526       .  S
C1498      C1858   1.498       .  S
C1499      C1507   1.370       .  A
C1499      C1876   1.392       .  A
C1500      C1511   1.366       .  A
C1500      C1877   1.371       .  A
C1501      C1515   1.378       .  A
C1501      C1878   1.397       .  A
C1502      C1873   1.392   1_554  A
C1502      C1505   1.376       .  A
C1503      C1874   1.371   1_554  A
C1503      C1509   1.376       .  A
C1504      C1875   1.397   1_554  A
C1504      C1512   1.385       .  A
C1505      H1518   1.081       .  S
C1505      N1880   1.351   1_554  A
N1506      C1879   1.351       .  A
N1506      C1507   1.352       .  A
N1506      C1802   1.421       .  S
C1507      H1508   1.081       .  S
C1509      H1519   1.082       .  S
C1509      N1510   1.361   1_554  A
N1510      C1885   1.354       .  A
N1510      C2190   1.435       .  S
C1511      H1517   1.082       .  S
C1511      N1884   1.354       .  A
C1512      H1514   1.082       .  S
C1512      N1887   1.354   1_554  A
N1513      C1886   1.354       .  A
N1513      C1515   1.351       .  A
N1513      C1833   1.431       .  S
C1515      H1516   1.082       .  S
C1520      C1522   1.545       .  S
C1520      C1524   1.546       .  S
C1520      C1523   1.526       .  S
C1520      C1861   1.503       .  S
C1521      C1525   1.545       .  S
C1521      C1527   1.539       .  S
C1521      C1526   1.528       .  S
C1521      C1844   1.493       .  S
C1522      C1530   1.381       .  A
C1522      C1525   1.390       .  A
C1523      C1534   1.378       .  A
C1523      C1526   1.373       .  A
C1524      C1538   1.381       .  A
C1524      C1527   1.393       .  A
C1525      C1528   1.384       .  A
C1526      C1532   1.381       .  A
C1527      C1535   1.386       .  A
C1528      H1541   1.082       .  S
C1528      N1529   1.357       .  A
N1529      C1530   1.358       .  A
N1529      C1760   1.439       .  S
C1530      H1531   1.080       .  S
C1532      H1542   1.083       .  S
C1532      N1533   1.358       .  A
N1533      C1534   1.357       .  A
N1533      C1774   1.437       .  S
C1534      H1540   1.082       .  S
C1535      H1537   1.082       .  S
C1535      N1536   1.354       .  A
N1536      C1538   1.351       .  A
N1536      C1788   1.439       .  S
C1538      H1539   1.082       .  S
O1543      C1551   1.266       .  A
O1543     Co2311   2.014   1_545  S
O1544      C1552   1.247       .  A
O1544     Co1564   1.969       .  S
O1545      C1553   1.261       .  A
O1545     Co1565   1.962       .  S
O1546      C1554   1.261       .  A
O1546     Co1940   2.043   1_554  S
O1547      C1553   1.272       .  A
O1548     Co1937   2.011   1_554  S
O1549      C1552   1.246       .  A
O1549     Co2314   1.967   1_545  S
O1550      C1551   1.260       .  A
O1550     Co1565   1.970       .  S
C1551      C1830   1.489       .  S
C1552      C1805   1.472       .  S
C1553      C1721   1.469       .  S
O1555      C1568   1.267   1_455  A
O1556     Co1564   2.024   1_565  S
O1557      C1570   1.265       .  A
O1557     Co2313   2.011       .  S
O1558      C1571   1.300       .  A
O1558     Co1566   2.061       .  S
O1559      C1571   1.277       .  A
O1559     Co2312   1.895       .  S
O1560      C1570   1.257       .  A
O1560     Co1563   1.990       .  S
O1561      C1568   1.296       .  A
O1561     Co1566   2.067       .  S
O1562      C1569   1.270       .  A
O1562     Co1565   2.050       .  S
Co1563     O2291   2.014       .  S
Co1563     O1922   2.011       .  S
Co1563     O2315   1.947       .  S
Co1564     O2307   1.895       .  S
Co1565     O2305   2.011       .  S
Co1565     O1567   2.101       .  S
Co1566     O1920   2.043       .  S
Co1566     O2297   1.967       .  S
O1567     Co2311   1.947   1_545  S
C1568      C1819   1.457       .  S
C1570      C1746   1.477       .  S
C1571      C1735   1.484       .  S
O1572      C1580   1.266       .  A
O1572     Co2340   1.899       .  S
O1573      C1581   1.265       .  A
O1573     Co1593   1.976       .  S
O1574      C1582   1.262       .  A
O1574     Co1594   2.017       .  S
O1575      C1583   1.287   1_655  A
O1575     Co1595   2.085       .  S
O1576      C1582   1.255       .  A
O1577     Co1592   1.996       .  S
O1578      C1581   1.270       .  A
O1578     Co2343   2.018   1_545  S
O1579      C1580   1.295       .  A
O1579     Co1594   2.093       .  S
C1580      C1791   1.492       .  S
C1581      C1763   1.499       .  S
C1582      C1676   1.470       .  S
O1584      C1597   1.262   1_455  A
O1585     Co1593   2.078       .  S
O1586      C1599   1.268       .  A
O1586     Co2342   1.906       .  S
O1587      C1600   1.264       .  A
O1587     Co1595   1.972       .  S
O1588      C1600   1.271       .  A
O1588     Co2341   2.017       .  S
O1589      C1599   1.294       .  A
O1589     Co1592   2.098       .  S
O1590      C1597   1.253       .  A
O1590     Co1595   1.965       .  S
O1591      C1598   1.272   1_565  A
O1591     Co1594   1.993   1_565  S
Co1592     O2320   1.899       .  S
Co1592     O2344   2.037       .  S
Co1593     O2336   2.017       .  S
Co1594     O2334   1.906       .  S
Co1594     O1596   2.040       .  S
Co1595     O2326   2.018       .  S
O1596     Co2340   2.037       .  S
C1597      C1777   1.474       .  S
C1599      C1704   1.478       .  S
C1600      C1690   1.489       .  S
C1601      C1603   1.549       .  S
C1601      C1605   1.530       .  S
C1601      C1604   1.539       .  S
C1601      C1648   1.504       .  S
C1602      C1606   1.543       .  S
C1602      C1608   1.535       .  S
C1602      C1607   1.528       .  S
C1602      C1665   1.506       .  S
C1603      C1611   1.385       .  A
C1603      C1606   1.391       .  A
C1604      C1615   1.383       .  A
C1604      C1607   1.383       .  A
C1605      C1619   1.377       .  A
C1605      C1608   1.380       .  A
C1606      C1609   1.372       .  A
C1607      C1613   1.373       .  A
C1608      C1616   1.380       .  A
C1609      H1622   1.078       .  S
C1609      N1610   1.363       .  A
N1610      C1611   1.365       .  A
N1610      C1749   1.456       .  S
C1611      H1612   1.080       .  S
C1613      H1623   1.083       .  S
C1613      N1614   1.355       .  A
N1614      C1615   1.358       .  A
N1614      C1718   1.433       .  S
C1615      H1621   1.082       .  S
C1616      H1618   1.082       .  S
C1616      N1617   1.355       .  A
N1617      C1619   1.355       .  A
N1617      C1732   1.434       .  S
C1619      H1620   1.082       .  S
C1624      C1626   1.551       .  S
C1624      C1628   1.540       .  S
C1624      C1627   1.533       .  S
C1624      C1662   1.506       .  S
C1625      C1629   1.541       .  S
C1625      C1631   1.531       .  S
C1625      C1630   1.542       .  S
C1625      C1651   1.507       .  S
C1626      C1634   1.387       .  A
C1626      C1629   1.390       .  A
C1627      C1638   1.380       .  A
C1627      C1630   1.382       .  A
C1628      C1642   1.384       .  A
C1628      C1631   1.386       .  A
C1629      C1632   1.381       .  A
C1630      C1636   1.379       .  A
C1631      C1639   1.375       .  A
C1632      H1645   1.081       .  S
C1632      N1633   1.353       .  A
N1633      C1634   1.355       .  A
N1633      C1707   1.433       .  S
C1634      H1635   1.082       .  S
C1636      H1646   1.080       .  S
C1636      N1637   1.361       .  A
N1637      C1638   1.361       .  A
N1637      C1679   1.450       .  S
C1638      H1644   1.082       .  S
C1639      H1641   1.083       .  S
C1639      N1640   1.355       .  A
N1640      C1642   1.357       .  A
N1640      C1693   1.433       .  S
C1642      H1643   1.081       .  S
C1647      C1648   1.408       .  A
C1647      C1652   1.391       .  A
C1647      H1654   1.083       .  S
C1648      C1649   1.418       .  A
C1649      C1650   1.392       .  A
C1649      N1656   1.436       .  S
C1650      C1651   1.404       .  A
C1650      H1655   1.082       .  S
C1651      C1652   1.407       .  A
C1652      N1653   1.438       .  S
N1653      H1657   1.045       .  S
N1653      H1658   1.045       .  S
N1656      H1659   1.043       .  S
N1656      H1660   1.043       .  S
C1661      C2036   1.405       .  A
C1661      C1666   1.391       .  A
C1661      H2042   1.081       .  S
C1662      C2035   1.405       .  A
C1662      C2037   1.416       .  A
C1663      C2036   1.416       .  A
C1663      C1664   1.390       .  A
C1663      N2044   1.439       .  S
C1664      C1665   1.406       .  A
C1664      H1669   1.081       .  S
C1665      C1666   1.407       .  A
C1666      N1667   1.432       .  S
N1667      H1671   1.044       .  S
N1667      H1672   1.046       .  S
H1668      C2035   1.081       .  S
N1670      C2037   1.439       .  S
N1670      H1673   1.041       .  S
N1670      H2048   1.045       .  S
H1674      N2044   1.045       .  S
C1675      C1676   1.398       .  A
C1675      C1680   1.404       .  A
C1675      H1682   1.084       .  S
C1676      C1677   1.405       .  A
C1677      C1678   1.407       .  A
C1677      N1684   1.432       .  S
C1678      C1679   1.409       .  A
C1678      H1683   1.082       .  S
C1679      C1680   1.420       .  A
C1680      N1681   1.437       .  S
N1681      H1685   1.045       .  S
N1681      H1686   1.046       .  S
N1684      H1687   1.045       .  S
N1684      H1688   1.046       .  S
C1689      C1690   1.409       .  A
C1689      C1694   1.404       .  A
C1689      H2444   1.084       .  S
C1690      C1691   1.414       .  A
C1691      C1692   1.406       .  A
C1691      N1698   1.436       .  S
C1692      C1693   1.399       .  A
C1692      H1697   1.084       .  S
C1693      C1694   1.411       .  A
C1694      N1695   1.437       .  S
N1695      H2447   1.045       .  S
N1695      H1700   1.045       .  S
H1696      C2437   1.084   1_545  S
N1698      H1701   1.044       .  S
N1698      H1702   1.046       .  S
H1699      N2443   1.045       .  S
C1703      C1704   1.405       .  A
C1703      C1708   1.407       .  A
C1703      H1710   1.084       .  S
C1704      C1705   1.416       .  A
C1705      C1706   1.402       .  A
C1705      N1712   1.433       .  S
C1706      C1707   1.400       .  A
C1706      H1711   1.083       .  S
C1707      C1708   1.407       .  A
C1708      N1709   1.437       .  S
N1709      H1713   1.045       .  S
N1709      H1714   1.046       .  S
N1712      H1715   1.045       .  S
N1712      H1716   1.044       .  S
C1717      C1718   1.400       .  A
C1717      C1722   1.405       .  A
C1717      H1724   1.084       .  S
C1718      C1719   1.408       .  A
C1719      C1720   1.403       .  A
C1719      N1726   1.431       .  S
C1720      C1721   1.400       .  A
C1720      H1725   1.084       .  S
C1721      C1722   1.413       .  A
C1722      N1723   1.438       .  S
N1723      H1727   1.046       .  S
N1723      H1728   1.045       .  S
N1726      H1729   1.046       .  S
N1726      H1730   1.046       .  S
C1731      C1732   1.400       .  A
C1731      C1736   1.404       .  A
C1731      H1738   1.083       .  S
C1732      C1733   1.403       .  A
C1733      C1734   1.401       .  A
C1733      N1740   1.431       .  S
C1734      C1735   1.408       .  A
C1734      H2487   1.084       .  S
C1735      C1736   1.418       .  A
C1736      N1737   1.439       .  S
N1737      H1741   1.046       .  S
N1737      H1742   1.045       .  S
H1739      C2482   1.084       .  S
N1740      H1743   1.043       .  S
N1740      H2492   1.046       .  S
H1744      N2488   1.046       .  S
C1745      C1746   1.396       .  A
C1745      C1750   1.396       .  A
C1745      H1752   1.082       .  S
C1746      C1747   1.412       .  A
C1747      C1748   1.410       .  A
C1747      N1754   1.435       .  S
C1748      C1749   1.413       .  A
C1748      H1753   1.082       .  S
C1749      C1750   1.418       .  A
C1750      N1751   1.430       .  S
N1751      H1755   1.045       .  S
N1751      H1756   1.047       .  S
N1754      H1757   1.045       .  S
N1754      H1758   1.044       .  S
C1759      C1760   1.401       .  A
C1759      C1764   1.413       .  A
C1759      H1766   1.083       .  S
C1760      C1761   1.414       .  A
C1761      C1762   1.402       .  A
C1761      N1768   1.438       .  S
C1762      C1763   1.406       .  A
C1762      H1767   1.084       .  S
C1763      C1764   1.422       .  A
C1764      N1765   1.438   1_545  S
N1765      H1769   1.045       .  S
N1765      H1770   1.046       .  S
N1768      H1771   1.043       .  S
N1768      H1772   1.045       .  S
C1773      C1774   1.401       .  A
C1773      C1778   1.405       .  A
C1773      H1780   1.084       .  S
C1774      C1775   1.417       .  A
C1775      C1776   1.405       .  A
C1775      N1782   1.437       .  S
C1776      C1777   1.401       .  A
C1776      H1781   1.084   1_655  S
C1777      C1778   1.413       .  A
C1778      N1779   1.439       .  S
N1779      H1783   1.046       .  S
N1779      H1784   1.045       .  S
N1782      H1785   1.044       .  S
N1782      H1786   1.045   1_655  S
C1787      C1788   1.399       .  A
C1787      C1792   1.398       .  A
C1787      H1794   1.083       .  S
C1788      C1789   1.411       .  A
C1789      C1790   1.403       .  A
C1789      N1796   1.438       .  S
C1790      C1791   1.407       .  A
C1790      H1795   1.083       .  S
C1791      C1792   1.421       .  A
C1792      N1793   1.427       .  S
N1793      H1797   1.045       .  S
N1793      H1798   1.045       .  S
N1796      H1799   1.046       .  S
N1796      H1800   1.046       .  S
C1801      C1802   1.392       .  A
C1801      C1806   1.399       .  A
C1801      H1808   1.084       .  S
C1802      C1803   1.406       .  A
C1803      C1804   1.399       .  A
C1803      N2184   1.437       .  S
C1804      C1805   1.402       .  A
C1804      H1809   1.084       .  S
C1805      C1806   1.420       .  A
C1806      N1807   1.439       .  S
N1807      H2559   1.046   1_545  S
N1807      H2560   1.046   1_545  S
N1810      C2177   1.437       .  S
N1810      H1813   1.042       .  S
N1810      H2188   1.046       .  S
H1811      N2555   1.046       .  S
H1812      N2555   1.046       .  S
H1814      N2184   1.046       .  S
C1815      C2190   1.401   1_554  A
C1815      C1820   1.395       .  A
C1815      H1822   1.083       .  S
C1816      C2189   1.401       .  A
C1816      C1817   1.414       .  A
C1816      N1884   1.435       .  S
C1817      C1818   1.399       .  A
C1817      N1824   1.438       .  S
C1818      C1819   1.397       .  A
C1818      H1823   1.081       .  S
C1819      C2194   1.411       .  A
C1820      C2193   1.411   1_554  A
C1820      N1821   1.436       .  S
N1821      H1825   1.043       .  S
N1821      H1826   1.045       .  S
N1824      H1827   1.045       .  S
N1824      H1828   1.046       .  S
C1829      C1830   1.407       .  A
C1829      C2208   1.393       .  A
C1829      H2210   1.084       .  S
C1830      C1831   1.418       .  A
C1831      C1832   1.412       .  A
C1831      N1838   1.437       .  S
C1832      C1833   1.402       .  A
C1832      H1837   1.083       .  S
C1833      C2208   1.409       .  A
C1834      C2203   1.393       .  A
C1834      C2207   1.409       .  A
C1834      N1835   1.438       .  S
N1835      H1839   1.046       .  S
N1835      H1840   1.043       .  S
H1836      C2203   1.084       .  S
N1838      H1841   1.045       .  S
N1838      H1842   1.046   1_545  S
C1843      C1844   1.399       .  A
C1843      C1848   1.384       .  A
C1843      H1850   1.084       .  S
C1844      C1845   1.410       .  A
C1845      C1846   1.389       .  A
C1845      N1852   1.438       .  S
C1846      C1847   1.404       .  A
C1846      H1851   1.081       .  S
C1847      C1848   1.422       .  A
C1848      N1849   1.439       .  S
N1849      H1853   1.045       .  S
N1849      H1854   1.039       .  S
N1852      H1855   1.046       .  S
N1852      H1856   1.046       .  S
C1857      C1858   1.405       .  A
C1857      C1862   1.391       .  A
C1857      H1864   1.081       .  S
C1858      C1859   1.407       .  A
C1859      C1860   1.384       .  A
C1859      N1866   1.433       .  S
C1860      C1861   1.405       .  A
C1860      H1865   1.082       .  S
C1861      C1862   1.417       .  A
C1862      N1863   1.439       .  S
N1863      H1867   1.045       .  S
N1863      H1868   1.041       .  S
N1866      H1869   1.045       .  S
N1866      H1870   1.047       .  S
C1871      C1873   1.532       .  S
C1871      C1875   1.538       .  S
C1871      C1874   1.514       .  S
C1871      C2221   1.499       .  S
C1872      C1876   1.537       .  S
C1872      C1878   1.545       .  S
C1872      C1877   1.526       .  S
C1872      C2232   1.498       .  S
C1873      C1881   1.370       .  A
C1874      C1885   1.366       .  A
C1875      C1889   1.378       .  A
C1876      C1879   1.376       .  A
C1877      C1883   1.376       .  A
C1878      C1886   1.385       .  A
C1879      H1892   1.081       .  S
N1880      C1881   1.352       .  A
N1880      C2176   1.421       .  S
C1881      H1882   1.081       .  S
C1883      H1893   1.082       .  S
C1883      N1884   1.361       .  A
C1885      H1891   1.082       .  S
C1886      H1888   1.082       .  S
N1887      C1889   1.351       .  A
N1887      C2207   1.431       .  S
C1889      H1890   1.082       .  S
C1894      C1896   1.545       .  S
C1894      C1898   1.545       .  S
C1894      C1897   1.526       .  S
C1894      C2235   1.503       .  S
C1895      C1899   1.545       .  S
C1895      C1901   1.539       .  S
C1895      C1900   1.528       .  S
C1895      C2218   1.493       .  S
C1896      C1904   1.381       .  A
C1896      C1899   1.390       .  A
C1897      C1908   1.378       .  A
C1897      C1900   1.373       .  A
C1898      C1912   1.381       .  A
C1898      C1901   1.393       .  A
C1899      C1902   1.384       .  A
C1900      C1906   1.381       .  A
C1901      C1909   1.385       .  A
C1902      H1915   1.082       .  S
C1902      N1903   1.358       .  A
N1903      C1904   1.358       .  A
N1903      C2134   1.439       .  S
C1904      H1905   1.080       .  S
C1906      H1916   1.083       .  S
C1906      N1907   1.358       .  A
N1907      C1908   1.357       .  A
N1907      C2148   1.437       .  S
C1908      H1914   1.082       .  S
C1909      H1911   1.082       .  S
C1909      N1910   1.354       .  A
N1910      C1912   1.351       .  A
N1910      C2162   1.439       .  S
C1912      H1913   1.082       .  S
O1917      C1925   1.266       .  A
O1917     Co2685   2.014   1_545  S
O1918      C1926   1.247       .  A
O1918     Co1938   1.969       .  S
O1919      C1927   1.261       .  A
O1919     Co1939   1.962       .  S
O1920      C1928   1.261       .  A
O1921      C1927   1.272       .  A
O1923      C1926   1.246       .  A
O1923     Co2688   1.968   1_545  S
O1924      C1925   1.260       .  A
O1924     Co1939   1.970       .  S
C1925      C2204   1.489       .  S
C1926      C2179   1.472       .  S
C1927      C2095   1.469       .  S
O1929      C1942   1.267   1_455  A
O1930     Co1938   2.024   1_565  S
O1931      C1944   1.265       .  A
O1931     Co2687   2.011       .  S
O1932      C1945   1.300       .  A
O1932     Co1940   2.061       .  S
O1933      C1945   1.277       .  A
O1933     Co2686   1.895       .  S
O1934      C1944   1.257       .  A
O1934     Co1937   1.991       .  S
O1935      C1942   1.296       .  A
O1935     Co1940   2.067       .  S
O1936      C1943   1.270       .  A
O1936     Co1939   2.050       .  S
Co1937     O2665   2.014       .  S
Co1937     O2689   1.947       .  S
Co1938     O2681   1.895       .  S
Co1939     O2679   2.011       .  S
Co1939     O1941   2.102       .  S
Co1940     O2671   1.967       .  S
O1941     Co2685   1.948   1_545  S
C1942      C2193   1.457       .  S
C1944      C2120   1.477       .  S
C1945      C2109   1.484       .  S
O1946      C1954   1.266       .  A
O1946     Co2714   1.899       .  S
O1947      C1955   1.265       .  A
O1947     Co1967   1.976       .  S
O1948      C1956   1.262       .  A
O1948     Co1968   2.017       .  S
O1949      C1957   1.287   1_655  A
O1949     Co1969   2.085       .  S
O1950      C1956   1.255       .  A
O1951     Co1966   1.996       .  S
O1952      C1955   1.270       .  A
O1952     Co2717   2.018   1_545  S
O1953      C1954   1.295       .  A
O1953     Co1968   2.093       .  S
C1954      C2165   1.492       .  S
C1955      C2137   1.499       .  S
C1956      C2050   1.470       .  S
O1958      C1971   1.262   1_455  A
O1959     Co1967   2.078       .  S
O1960      C1973   1.268       .  A
O1960     Co2716   1.906       .  S
O1961      C1974   1.264       .  A
O1961     Co1969   1.972       .  S
O1962      C1974   1.271       .  A
O1962     Co2715   2.017       .  S
O1963      C1973   1.294       .  A
O1963     Co1966   2.098       .  S
O1964      C1971   1.253       .  A
O1964     Co1969   1.965       .  S
O1965      C1972   1.272   1_565  A
O1965     Co1968   1.993   1_565  S
Co1966     O2694   1.899       .  S
Co1966     O2718   2.037       .  S
Co1967     O2710   2.017       .  S
Co1968     O2708   1.906       .  S
Co1968     O1970   2.040       .  S
Co1969     O2700   2.018       .  S
O1970     Co2714   2.037       .  S
C1971      C2151   1.474       .  S
C1973      C2078   1.478       .  S
C1974      C2064   1.489       .  S
C1975      C1977   1.549       .  S
C1975      C1979   1.530       .  S
C1975      C1978   1.539       .  S
C1975      C2022   1.504       .  S
C1976      C1980   1.543       .  S
C1976      C1982   1.535       .  S
C1976      C1981   1.528       .  S
C1976      C2039   1.506       .  S
C1977      C1985   1.385       .  A
C1977      C1980   1.391       .  A
C1978      C1989   1.383       .  A
C1978      C1981   1.383       .  A
C1979      C1993   1.377       .  A
C1979      C1982   1.380       .  A
C1980      C1983   1.372       .  A
C1981      C1987   1.373       .  A
C1982      C1990   1.380       .  A
C1983      H1996   1.078       .  S
C1983      N1984   1.363       .  A
N1984      C1985   1.365       .  A
N1984      C2123   1.456       .  S
C1985      H1986   1.080       .  S
C1987      H1997   1.083       .  S
C1987      N1988   1.355       .  A
N1988      C1989   1.358       .  A
N1988      C2092   1.433       .  S
C1989      H1995   1.082       .  S
C1990      H1992   1.082       .  S
C1990      N1991   1.355       .  A
N1991      C1993   1.355       .  A
N1991      C2106   1.434       .  S
C1993      H1994   1.082       .  S
C1998      C2000   1.551       .  S
C1998      C2002   1.540       .  S
C1998      C2001   1.533       .  S
C1998      C2036   1.506       .  S
C1999      C2003   1.541       .  S
C1999      C2005   1.531       .  S
C1999      C2004   1.542       .  S
C1999      C2025   1.507       .  S
C2000      C2008   1.387       .  A
C2000      C2003   1.390       .  A
C2001      C2012   1.380       .  A
C2001      C2004   1.382       .  A
C2002      C2016   1.384       .  A
C2002      C2005   1.386       .  A
C2003      C2006   1.381       .  A
C2004      C2010   1.379       .  A
C2005      C2013   1.375       .  A
C2006      H2019   1.081       .  S
C2006      N2007   1.353       .  A
N2007      C2008   1.355       .  A
N2007      C2081   1.433       .  S
C2008      H2009   1.082       .  S
C2010      H2020   1.080       .  S
C2010      N2011   1.361       .  A
N2011      C2012   1.360       .  A
N2011      C2053   1.450       .  S
C2012      H2018   1.082       .  S
C2013      H2015   1.083       .  S
C2013      N2014   1.355       .  A
N2014      C2016   1.357       .  A
N2014      C2067   1.433       .  S
C2016      H2017   1.081       .  S
C2021      C2022   1.408       .  A
C2021      C2026   1.391       .  A
C2021      H2028   1.083       .  S
C2022      C2023   1.418       .  A
C2023      C2024   1.392       .  A
C2023      N2030   1.436       .  S
C2024      C2025   1.404       .  A
C2024      H2029   1.082       .  S
C2025      C2026   1.407       .  A
C2026      N2027   1.438       .  S
N2027      H2031   1.045       .  S
N2027      H2032   1.045       .  S
N2030      H2033   1.043       .  S
N2030      H2034   1.043       .  S
C2035      C2040   1.391   1_554  A
C2037      C2038   1.390   1_554  A
C2038      C2039   1.406       .  A
C2038      H2043   1.081       .  S
C2039      C2040   1.407       .  A
C2040      N2041   1.432       .  S
N2041      H2045   1.044       .  S
N2041      H2046   1.046       .  S
N2044      H2047   1.041       .  S
C2049      C2050   1.398       .  A
C2049      C2054   1.404       .  A
C2049      H2056   1.084       .  S
C2050      C2051   1.405       .  A
C2051      C2052   1.407       .  A
C2051      N2058   1.432       .  S
C2052      C2053   1.409       .  A
C2052      H2057   1.082       .  S
C2053      C2054   1.419       .  A
C2054      N2055   1.437       .  S
N2055      H2059   1.045       .  S
N2055      H2060   1.045       .  S
N2058      H2061   1.045       .  S
N2058      H2062   1.046       .  S
C2063      C2064   1.409       .  A
C2063      C2068   1.404       .  A
C2063      H2818   1.084       .  S
C2064      C2065   1.414       .  A
C2065      C2066   1.406       .  A
C2065      N2072   1.436       .  S
C2066      C2067   1.399       .  A
C2066      H2071   1.084       .  S
C2067      C2068   1.411       .  A
C2068      N2069   1.437       .  S
N2069      H2821   1.044       .  S
N2069      H2074   1.045       .  S
H2070      C2811   1.084   1_545  S
N2072      H2075   1.043       .  S
N2072      H2076   1.046       .  S
H2073      N2817   1.044       .  S
C2077      C2078   1.405       .  A
C2077      C2082   1.407       .  A
C2077      H2084   1.084       .  S
C2078      C2079   1.416       .  A
C2079      C2080   1.402       .  A
C2079      N2086   1.433       .  S
C2080      C2081   1.400       .  A
C2080      H2085   1.083       .  S
C2081      C2082   1.407       .  A
C2082      N2083   1.437       .  S
N2083      H2087   1.045       .  S
N2083      H2088   1.046       .  S
N2086      H2089   1.045       .  S
N2086      H2090   1.044       .  S
C2091      C2092   1.400       .  A
C2091      C2096   1.405       .  A
C2091      H2098   1.084       .  S
C2092      C2093   1.408       .  A
C2093      C2094   1.403       .  A
C2093      N2100   1.431       .  S
C2094      C2095   1.400       .  A
C2094      H2099   1.084       .  S
C2095      C2096   1.413       .  A
C2096      N2097   1.438       .  S
N2097      H2101   1.046       .  S
N2097      H2102   1.045       .  S
N2100      H2103   1.046       .  S
N2100      H2104   1.046       .  S
C2105      C2106   1.400       .  A
C2105      C2110   1.404       .  A
C2105      H2112   1.083       .  S
C2106      C2107   1.403       .  A
C2107      C2108   1.401       .  A
C2107      N2114   1.431       .  S
C2108      C2109   1.408       .  A
C2108      H2861   1.084       .  S
C2109      C2110   1.418       .  A
C2110      N2111   1.439       .  S
N2111      H2115   1.046       .  S
N2111      H2116   1.045       .  S
H2113      C2856   1.084       .  S
N2114      H2117   1.043       .  S
N2114      H2866   1.046       .  S
H2118      N2862   1.046       .  S
C2119      C2120   1.396       .  A
C2119      C2124   1.396       .  A
C2119      H2126   1.082       .  S
C2120      C2121   1.412       .  A
C2121      C2122   1.410       .  A
C2121      N2128   1.435       .  S
C2122      C2123   1.413       .  A
C2122      H2127   1.082       .  S
C2123      C2124   1.418       .  A
C2124      N2125   1.430       .  S
N2125      H2129   1.045       .  S
N2125      H2130   1.047       .  S
N2128      H2131   1.045       .  S
N2128      H2132   1.044       .  S
C2133      C2134   1.401       .  A
C2133      C2138   1.413       .  A
C2133      H2140   1.083       .  S
C2134      C2135   1.414       .  A
C2135      C2136   1.402       .  A
C2135      N2142   1.438       .  S
C2136      C2137   1.406       .  A
C2136      H2141   1.084       .  S
C2137      C2138   1.422       .  A
C2138      N2139   1.438   1_545  S
N2139      H2143   1.045       .  S
N2139      H2144   1.046       .  S
N2142      H2145   1.043       .  S
N2142      H2146   1.045       .  S
C2147      C2148   1.401       .  A
C2147      C2152   1.405       .  A
C2147      H2154   1.084       .  S
C2148      C2149   1.417       .  A
C2149      C2150   1.405       .  A
C2149      N2156   1.437       .  S
C2150      C2151   1.401       .  A
C2150      H2155   1.084   1_655  S
C2151      C2152   1.413       .  A
C2152      N2153   1.439       .  S
N2153      H2157   1.046       .  S
N2153      H2158   1.045       .  S
N2156      H2159   1.044       .  S
N2156      H2160   1.045   1_655  S
C2161      C2162   1.399       .  A
C2161      C2166   1.398       .  A
C2161      H2168   1.083       .  S
C2162      C2163   1.411       .  A
C2163      C2164   1.403       .  A
C2163      N2170   1.438       .  S
C2164      C2165   1.407       .  A
C2164      H2169   1.083       .  S
C2165      C2166   1.421       .  A
C2166      N2167   1.427       .  S
N2167      H2171   1.045       .  S
N2167      H2172   1.045       .  S
N2170      H2173   1.046       .  S
N2170      H2174   1.046       .  S
C2175      C2176   1.392       .  A
C2175      C2180   1.399       .  A
C2175      H2182   1.084       .  S
C2176      C2177   1.406       .  A
C2177      C2178   1.399       .  A
C2178      C2179   1.402       .  A
C2178      H2183   1.084       .  S
C2179      C2180   1.420       .  A
C2180      N2181   1.439       .  S
N2181      H2933   1.046   1_545  S
N2181      H2934   1.046   1_546  S
N2184      H2187   1.042       .  S
H2185      N2929   1.046       .  S
H2186      N2929   1.046   1_554  S
C2189      C2194   1.395       .  A
C2189      H2196   1.083       .  S
C2190      C2191   1.414       .  A
C2191      C2192   1.399       .  A
C2191      N2198   1.438       .  S
C2192      C2193   1.397       .  A
C2192      H2197   1.081       .  S
C2194      N2195   1.436       .  S
N2195      H2199   1.043       .  S
N2195      H2200   1.045       .  S
N2198      H2201   1.045       .  S
N2198      H2202   1.046       .  S
C2203      C2204   1.407       .  A
C2204      C2205   1.418       .  A
C2205      C2206   1.412       .  A
C2205      N2212   1.437       .  S
C2206      C2207   1.402       .  A
C2206      H2211   1.083       .  S
C2208      N2209   1.438       .  S
N2209      H2213   1.046       .  S
N2209      H2214   1.043       .  S
N2212      H2215   1.045   1_556  S
N2212      H2216   1.046   1_545  S
C2217      C2218   1.399       .  A
C2217      C2222   1.384       .  A
C2217      H2224   1.084       .  S
C2218      C2219   1.410       .  A
C2219      C2220   1.389       .  A
C2219      N2226   1.438       .  S
C2220      C2221   1.404       .  A
C2220      H2225   1.081       .  S
C2221      C2222   1.422       .  A
C2222      N2223   1.439       .  S
N2223      H2227   1.045       .  S
N2223      H2228   1.039       .  S
N2226      H2229   1.046       .  S
N2226      H2230   1.046       .  S
C2231      C2232   1.405       .  A
C2231      C2236   1.391       .  A
C2231      H2238   1.081       .  S
C2232      C2233   1.407       .  A
C2233      C2234   1.384       .  A
C2233      N2240   1.433       .  S
C2234      C2235   1.405       .  A
C2234      H2239   1.082       .  S
C2235      C2236   1.417       .  A
C2236      N2237   1.439       .  S
N2237      H2241   1.045       .  S
N2237      H2242   1.041       .  S
N2240      H2243   1.045       .  S
N2240      H2244   1.047       .  S
C2245      C2247   1.532       .  S
C2245      C2249   1.538       .  S
C2245      C2248   1.514       .  S
C2245      C2595   1.499       .  S
C2246      C2250   1.537       .  S
C2246      C2252   1.545       .  S
C2246      C2251   1.526       .  S
C2246      C2606   1.498       .  S
C2247      C2255   1.370       .  A
C2247      C2624   1.392       .  A
C2248      C2259   1.366       .  A
C2248      C2625   1.371       .  A
C2249      C2263   1.378       .  A
C2249      C2626   1.397       .  A
C2250      C2621   1.392   1_554  A
C2250      C2253   1.376       .  A
C2251      C2622   1.371   1_554  A
C2251      C2257   1.376       .  A
C2252      C2623   1.397   1_554  A
C2252      C2260   1.385       .  A
C2253      H2266   1.081       .  S
C2253      N2628   1.351   1_554  A
N2254      C2627   1.351       .  A
N2254      C2255   1.352       .  A
N2254      C2550   1.421       .  S
C2255      H2256   1.081       .  S
C2257      H2267   1.082       .  S
C2257      N2258   1.361   1_554  A
N2258      C2633   1.354       .  A
N2258      C2938   1.435       .  S
C2259      H2265   1.082       .  S
C2259      N2632   1.354       .  A
C2260      H2262   1.082       .  S
C2260      N2635   1.354   1_554  A
N2261      C2634   1.354       .  A
N2261      C2263   1.351       .  A
N2261      C2581   1.431       .  S
C2263      H2264   1.082       .  S
C2268      C2270   1.545       .  S
C2268      C2272   1.545       .  S
C2268      C2271   1.526       .  S
C2268      C2609   1.503       .  S
C2269      C2273   1.545       .  S
C2269      C2275   1.539       .  S
C2269      C2274   1.528       .  S
C2269      C2592   1.493       .  S
C2270      C2278   1.381       .  A
C2270      C2273   1.390       .  A
C2271      C2282   1.378       .  A
C2271      C2274   1.373       .  A
C2272      C2286   1.381       .  A
C2272      C2275   1.393       .  A
C2273      C2276   1.384       .  A
C2274      C2280   1.382       .  A
C2275      C2283   1.386       .  A
C2276      H2289   1.082       .  S
C2276      N2277   1.358       .  A
N2277      C2278   1.358       .  A
N2277      C2508   1.439       .  S
C2278      H2279   1.080       .  S
C2280      H2290   1.083       .  S
C2280      N2281   1.358       .  A
N2281      C2282   1.357       .  A
N2281      C2522   1.437       .  S
C2282      H2288   1.082       .  S
C2283      H2285   1.082       .  S
C2283      N2284   1.354       .  A
N2284      C2286   1.351       .  A
N2284      C2536   1.439       .  S
C2286      H2287   1.082       .  S
O2291      C2299   1.266       .  A
O2292      C2300   1.247       .  A
O2292     Co2312   1.969       .  S
O2293      C2301   1.261       .  A
O2293     Co2313   1.962       .  S
O2294      C2302   1.261   1_565  A
O2294     Co2688   2.043   1_554  S
O2295      C2301   1.272       .  A
O2296     Co2685   2.011   1_544  S
O2297      C2300   1.246       .  A
O2298      C2299   1.260       .  A
O2298     Co2313   1.970       .  S
C2299      C2578   1.489       .  S
C2300      C2553   1.472       .  S
C2301      C2469   1.469       .  S
O2303      C2316   1.267   1_455  A
O2304     Co2312   2.024       .  S
O2305      C2318   1.265   1_545  A
O2306      C2319   1.300       .  A
O2306     Co2314   2.061       .  S
O2307      C2319   1.277   1_545  A
O2308      C2318   1.257       .  A
O2308     Co2311   1.990       .  S
O2309      C2316   1.296       .  A
O2309     Co2314   2.067       .  S
O2310      C2317   1.270       .  A
O2310     Co2313   2.050       .  S
Co2311     O2670   2.011   1_565  S
Co2313     O2315   2.101       .  S
Co2314     O2668   2.043       .  S
C2316      C2567   1.457       .  S
C2318      C2494   1.477       .  S
C2319      C2483   1.484       .  S
O2320      C2328   1.266       .  A
O2321      C2329   1.265       .  A
O2321     Co2341   1.976       .  S
O2322      C2330   1.262       .  A
O2322     Co2342   2.017       .  S
O2323      C2331   1.287   1_665  A
O2323     Co2343   2.085       .  S
O2324      C2330   1.255       .  A
O2325     Co2340   1.996       .  S
O2326      C2329   1.270       .  A
O2327      C2328   1.295       .  A
O2327     Co2342   2.094       .  S
C2328      C2539   1.492       .  S
C2329      C2511   1.499       .  S
C2330      C2424   1.470       .  S
O2332      C2345   1.262   1_455  A
O2333     Co2341   2.079       .  S
O2334      C2347   1.268   1_545  A
O2335      C2348   1.264       .  A
O2335     Co2343   1.972       .  S
O2336      C2348   1.271   1_545  A
O2337      C2347   1.294       .  A
O2337     Co2340   2.098   1_565  S
O2338      C2345   1.253       .  A
O2338     Co2343   1.965       .  S
O2339      C2346   1.272       .  A
O2339     Co2342   1.993       .  S
Co2342     O2344   2.040       .  S
C2345      C2525   1.474       .  S
C2347      C2452   1.479       .  S
C2348      C2438   1.489       .  S
C2349      C2351   1.549       .  S
C2349      C2353   1.530       .  S
C2349      C2352   1.539       .  S
C2349      C2396   1.504       .  S
C2350      C2354   1.543       .  S
C2350      C2356   1.535       .  S
C2350      C2355   1.528       .  S
C2350      C2413   1.506       .  S
C2351      C2359   1.385       .  A
C2351      C2354   1.391       .  A
C2352      C2363   1.383       .  A
C2352      C2355   1.382       .  A
C2353      C2367   1.377       .  A
C2353      C2356   1.380       .  A
C2354      C2357   1.372       .  A
C2355      C2361   1.373       .  A
C2356      C2364   1.380       .  A
C2357      H2370   1.078       .  S
C2357      N2358   1.363       .  A
N2358      C2359   1.365       .  A
N2358      C2497   1.456       .  S
C2359      H2360   1.080       .  S
C2361      H2371   1.083       .  S
C2361      N2362   1.355       .  A
N2362      C2363   1.358       .  A
N2362      C2466   1.433       .  S
C2363      H2369   1.082       .  S
C2364      H2366   1.082       .  S
C2364      N2365   1.355       .  A
N2365      C2367   1.355       .  A
N2365      C2480   1.434       .  S
C2367      H2368   1.082       .  S
C2372      C2374   1.551       .  S
C2372      C2376   1.540       .  S
C2372      C2375   1.533       .  S
C2372      C2410   1.506       .  S
C2373      C2377   1.541       .  S
C2373      C2379   1.531       .  S
C2373      C2378   1.542       .  S
C2373      C2399   1.507       .  S
C2374      C2382   1.387       .  A
C2374      C2377   1.390       .  A
C2375      C2386   1.380       .  A
C2375      C2378   1.382       .  A
C2376      C2390   1.384       .  A
C2376      C2379   1.386       .  A
C2377      C2380   1.381       .  A
C2378      C2384   1.379       .  A
C2379      C2387   1.375       .  A
C2380      H2393   1.081       .  S
C2380      N2381   1.353       .  A
N2381      C2382   1.355       .  A
N2381      C2455   1.433       .  S
C2382      H2383   1.082       .  S
C2384      H2394   1.080       .  S
C2384      N2385   1.361       .  A
N2385      C2386   1.360       .  A
N2385      C2427   1.450       .  S
C2386      H2392   1.082       .  S
C2387      H2389   1.083       .  S
C2387      N2388   1.355       .  A
N2388      C2390   1.357       .  A
N2388      C2441   1.433       .  S
C2390      H2391   1.081       .  S
C2395      C2396   1.408       .  A
C2395      C2400   1.391       .  A
C2395      H2402   1.083       .  S
C2396      C2397   1.418       .  A
C2397      C2398   1.392       .  A
C2397      N2404   1.436       .  S
C2398      C2399   1.404       .  A
C2398      H2403   1.082       .  S
C2399      C2400   1.407       .  A
C2400      N2401   1.438       .  S
N2401      H2405   1.045       .  S
N2401      H2406   1.045       .  S
N2404      H2407   1.043       .  S
N2404      H2408   1.043       .  S
C2409      C2784   1.405       .  A
C2409      C2414   1.391       .  A
C2409      H2790   1.081       .  S
C2410      C2783   1.405       .  A
C2410      C2785   1.416       .  A
C2411      C2784   1.416       .  A
C2411      C2412   1.390       .  A
C2411      N2792   1.439       .  S
C2412      C2413   1.406       .  A
C2412      H2417   1.081       .  S
C2413      C2414   1.407       .  A
C2414      N2415   1.432       .  S
N2415      H2419   1.044       .  S
N2415      H2420   1.046       .  S
H2416      C2783   1.081       .  S
N2418      C2785   1.439       .  S
N2418      H2421   1.041       .  S
N2418      H2796   1.045       .  S
H2422      N2792   1.045       .  S
C2423      C2424   1.398       .  A
C2423      C2428   1.404       .  A
C2423      H2430   1.084       .  S
C2424      C2425   1.405       .  A
C2425      C2426   1.407       .  A
C2425      N2432   1.432       .  S
C2426      C2427   1.409       .  A
C2426      H2431   1.082       .  S
C2427      C2428   1.420       .  A
C2428      N2429   1.437       .  S
N2429      H2433   1.045       .  S
N2429      H2434   1.046       .  S
N2432      H2435   1.045       .  S
N2432      H2436   1.046       .  S
C2437      C2438   1.409       .  A
C2437      C2442   1.404       .  A
C2438      C2439   1.414       .  A
C2439      C2440   1.406       .  A
C2439      N2446   1.436       .  S
C2440      C2441   1.399       .  A
C2440      H2445   1.084       .  S
C2441      C2442   1.411       .  A
C2442      N2443   1.437       .  S
N2443      H2448   1.045       .  S
N2446      H2449   1.044       .  S
N2446      H2450   1.046       .  S
C2451      C2452   1.405       .  A
C2451      C2456   1.407       .  A
C2451      H2458   1.084       .  S
C2452      C2453   1.416       .  A
C2453      C2454   1.402       .  A
C2453      N2460   1.433       .  S
C2454      C2455   1.400       .  A
C2454      H2459   1.083       .  S
C2455      C2456   1.407       .  A
C2456      N2457   1.437       .  S
N2457      H2461   1.045       .  S
N2457      H2462   1.045       .  S
N2460      H2463   1.045       .  S
N2460      H2464   1.044       .  S
C2465      C2466   1.400       .  A
C2465      C2470   1.405       .  A
C2465      H2472   1.084       .  S
C2466      C2467   1.408       .  A
C2467      C2468   1.403       .  A
C2467      N2474   1.431       .  S
C2468      C2469   1.400       .  A
C2468      H2473   1.084       .  S
C2469      C2470   1.413       .  A
C2470      N2471   1.438       .  S
N2471      H2475   1.046       .  S
N2471      H2476   1.045       .  S
N2474      H2477   1.046       .  S
N2474      H2478   1.046       .  S
C2479      C2480   1.400       .  A
C2479      C2484   1.404       .  A
C2479      H2486   1.083       .  S
C2480      C2481   1.403       .  A
C2481      C2482   1.401       .  A
C2481      N2488   1.431       .  S
C2482      C2483   1.408       .  A
C2483      C2484   1.418       .  A
C2484      N2485   1.439       .  S
N2485      H2489   1.046       .  S
N2485      H2490   1.045       .  S
N2488      H2491   1.043       .  S
C2493      C2494   1.396       .  A
C2493      C2498   1.396       .  A
C2493      H2500   1.082       .  S
C2494      C2495   1.412       .  A
C2495      C2496   1.410       .  A
C2495      N2502   1.435       .  S
C2496      C2497   1.413       .  A
C2496      H2501   1.082       .  S
C2497      C2498   1.418       .  A
C2498      N2499   1.430       .  S
N2499      H2503   1.045       .  S
N2499      H2504   1.047       .  S
N2502      H2505   1.045       .  S
N2502      H2506   1.044       .  S
C2507      C2508   1.401       .  A
C2507      C2512   1.413       .  A
C2507      H2514   1.083       .  S
C2508      C2509   1.414       .  A
C2509      C2510   1.402       .  A
C2509      N2516   1.438       .  S
C2510      C2511   1.406       .  A
C2510      H2515   1.084       .  S
C2511      C2512   1.422       .  A
C2512      N2513   1.438       .  S
N2513      H2517   1.045       .  S
N2513      H2518   1.046       .  S
N2516      H2519   1.043       .  S
N2516      H2520   1.045       .  S
C2521      C2522   1.401       .  A
C2521      C2526   1.405       .  A
C2521      H2528   1.084       .  S
C2522      C2523   1.417       .  A
C2523      C2524   1.405       .  A
C2523      N2530   1.437       .  S
C2524      C2525   1.401       .  A
C2524      H2529   1.084   1_655  S
C2525      C2526   1.413       .  A
C2526      N2527   1.439       .  S
N2527      H2531   1.046       .  S
N2527      H2532   1.045       .  S
N2530      H2533   1.044       .  S
N2530      H2534   1.045   1_655  S
C2535      C2536   1.399       .  A
C2535      C2540   1.398       .  A
C2535      H2542   1.083       .  S
C2536      C2537   1.411       .  A
C2537      C2538   1.403       .  A
C2537      N2544   1.438       .  S
C2538      C2539   1.407       .  A
C2538      H2543   1.083       .  S
C2539      C2540   1.421       .  A
C2540      N2541   1.427       .  S
N2541      H2545   1.045       .  S
N2541      H2546   1.045       .  S
N2544      H2547   1.046       .  S
N2544      H2548   1.046       .  S
C2549      C2550   1.392       .  A
C2549      C2554   1.399       .  A
C2549      H2556   1.084       .  S
C2550      C2551   1.406       .  A
C2551      C2552   1.399       .  A
C2551      N2932   1.437       .  S
C2552      C2553   1.402       .  A
C2552      H2557   1.084       .  S
C2553      C2554   1.420       .  A
C2554      N2555   1.439       .  S
N2558      C2925   1.437       .  S
N2558      H2561   1.042       .  S
N2558      H2936   1.046       .  S
H2562      N2932   1.046       .  S
C2563      C2938   1.401   1_554  A
C2563      C2568   1.395       .  A
C2563      H2570   1.083       .  S
C2564      C2937   1.401       .  A
C2564      C2565   1.414       .  A
C2564      N2632   1.435       .  S
C2565      C2566   1.399       .  A
C2565      N2572   1.438       .  S
C2566      C2567   1.397       .  A
C2566      H2571   1.081       .  S
C2567      C2942   1.411       .  A
C2568      C2941   1.411   1_554  A
C2568      N2569   1.436       .  S
N2569      H2573   1.043       .  S
N2569      H2574   1.045       .  S
N2572      H2575   1.045       .  S
N2572      H2576   1.046       .  S
C2577      C2578   1.407       .  A
C2577      C2956   1.393       .  A
C2577      H2958   1.084       .  S
C2578      C2579   1.418       .  A
C2579      C2580   1.412       .  A
C2579      N2586   1.437       .  S
C2580      C2581   1.402       .  A
C2580      H2585   1.083       .  S
C2581      C2956   1.409       .  A
C2582      C2951   1.393       .  A
C2582      C2955   1.409       .  A
C2582      N2583   1.438       .  S
N2583      H2587   1.046       .  S
N2583      H2588   1.043       .  S
H2584      C2951   1.084       .  S
N2586      H2589   1.045       .  S
N2586      H2590   1.046       .  S
C2591      C2592   1.399       .  A
C2591      C2596   1.384       .  A
C2591      H2598   1.084       .  S
C2592      C2593   1.410       .  A
C2593      C2594   1.388       .  A
C2593      N2600   1.438       .  S
C2594      C2595   1.404       .  A
C2594      H2599   1.081       .  S
C2595      C2596   1.422       .  A
C2596      N2597   1.439       .  S
N2597      H2601   1.045       .  S
N2597      H2602   1.039       .  S
N2600      H2603   1.046       .  S
N2600      H2604   1.046       .  S
C2605      C2606   1.405       .  A
C2605      C2610   1.391       .  A
C2605      H2612   1.081       .  S
C2606      C2607   1.407       .  A
C2607      C2608   1.384       .  A
C2607      N2614   1.433       .  S
C2608      C2609   1.405       .  A
C2608      H2613   1.082       .  S
C2609      C2610   1.417       .  A
C2610      N2611   1.439       .  S
N2611      H2615   1.045       .  S
N2611      H2616   1.041       .  S
N2614      H2617   1.045       .  S
N2614      H2618   1.047       .  S
C2619      C2621   1.532       .  S
C2619      C2623   1.538       .  S
C2619      C2622   1.514       .  S
C2619      C2969   1.499       .  S
C2620      C2624   1.537       .  S
C2620      C2626   1.545       .  S
C2620      C2625   1.526       .  S
C2620      C2980   1.498       .  S
C2621      C2629   1.370       .  A
C2622      C2633   1.366       .  A
C2623      C2637   1.378       .  A
C2624      C2627   1.376       .  A
C2625      C2631   1.376       .  A
C2626      C2634   1.385       .  A
C2627      H2640   1.081       .  S
N2628      C2629   1.352       .  A
N2628      C2924   1.421       .  S
C2629      H2630   1.081       .  S
C2631      H2641   1.082       .  S
C2631      N2632   1.361       .  A
C2633      H2639   1.082       .  S
C2634      H2636   1.082       .  S
N2635      C2637   1.351       .  A
N2635      C2955   1.431       .  S
C2637      H2638   1.082       .  S
C2642      C2644   1.545       .  S
C2642      C2646   1.545       .  S
C2642      C2645   1.526       .  S
C2642      C2983   1.503       .  S
C2643      C2647   1.545       .  S
C2643      C2649   1.539       .  S
C2643      C2648   1.528       .  S
C2643      C2966   1.493       .  S
C2644      C2652   1.381       .  A
C2644      C2647   1.390       .  A
C2645      C2656   1.378       .  A
C2645      C2648   1.373       .  A
C2646      C2660   1.381       .  A
C2646      C2649   1.393       .  A
C2647      C2650   1.384       .  A
C2648      C2654   1.382       .  A
C2649      C2657   1.385       .  A
C2650      H2663   1.082       .  S
C2650      N2651   1.358       .  A
N2651      C2652   1.358       .  A
N2651      C2882   1.439       .  S
C2652      H2653   1.080       .  S
C2654      H2664   1.083       .  S
C2654      N2655   1.358       .  A
N2655      C2656   1.357       .  A
N2655      C2896   1.437       .  S
C2656      H2662   1.082       .  S
C2657      H2659   1.082       .  S
C2657      N2658   1.354       .  A
N2658      C2660   1.351       .  A
N2658      C2910   1.439       .  S
C2660      H2661   1.082       .  S
O2665      C2673   1.266       .  A
O2666      C2674   1.247       .  A
O2666     Co2686   1.969       .  S
O2667      C2675   1.261       .  A
O2667     Co2687   1.962       .  S
O2668      C2676   1.261   1_565  A
O2669      C2675   1.272       .  A
O2671      C2674   1.246       .  A
O2672      C2673   1.260       .  A
O2672     Co2687   1.970       .  S
C2673      C2952   1.489       .  S
C2674      C2927   1.472       .  S
C2675      C2843   1.469       .  S
O2677      C2690   1.267   1_455  A
O2678     Co2686   2.024       .  S
O2679      C2692   1.265   1_545  A
O2680      C2693   1.300       .  A
O2680     Co2688   2.061       .  S
O2681      C2693   1.277   1_545  A
O2682      C2692   1.257       .  A
O2682     Co2685   1.990       .  S
O2683      C2690   1.296       .  A
O2683     Co2688   2.068       .  S
O2684      C2691   1.270       .  A
O2684     Co2687   2.050       .  S
Co2687     O2689   2.102       .  S
C2690      C2941   1.458       .  S
C2692      C2868   1.477       .  S
C2693      C2857   1.484       .  S
O2694      C2702   1.266       .  A
O2695      C2703   1.265       .  A
O2695     Co2715   1.976       .  S
O2696      C2704   1.262       .  A
O2696     Co2716   2.017       .  S
O2697      C2705   1.287   1_665  A
O2697     Co2717   2.085       .  S
O2698      C2704   1.255       .  A
O2699     Co2714   1.996       .  S
O2700      C2703   1.270       .  A
O2701      C2702   1.295       .  A
O2701     Co2716   2.093       .  S
C2702      C2913   1.492       .  S
C2703      C2885   1.499       .  S
C2704      C2798   1.470       .  S
O2706      C2719   1.262   1_455  A
O2707     Co2715   2.078       .  S
O2708      C2721   1.268   1_545  A
O2709      C2722   1.264       .  A
O2709     Co2717   1.972       .  S
O2710      C2722   1.271   1_545  A
O2711      C2721   1.294       .  A
O2711     Co2714   2.098   1_565  S
O2712      C2719   1.253       .  A
O2712     Co2717   1.965       .  S
O2713      C2720   1.272       .  A
O2713     Co2716   1.993       .  S
Co2716     O2718   2.040       .  S
C2719      C2899   1.474       .  S
C2721      C2826   1.478       .  S
C2722      C2812   1.489       .  S
C2723      C2725   1.549       .  S
C2723      C2727   1.530       .  S
C2723      C2726   1.539       .  S
C2723      C2770   1.504       .  S
C2724      C2728   1.543       .  S
C2724      C2730   1.535       .  S
C2724      C2729   1.528       .  S
C2724      C2787   1.506       .  S
C2725      C2733   1.385       .  A
C2725      C2728   1.391       .  A
C2726      C2737   1.383       .  A
C2726      C2729   1.382       .  A
C2727      C2741   1.377       .  A
C2727      C2730   1.380       .  A
C2728      C2731   1.372       .  A
C2729      C2735   1.373       .  A
C2730      C2738   1.380       .  A
C2731      H2744   1.078       .  S
C2731      N2732   1.363       .  A
N2732      C2733   1.365       .  A
N2732      C2871   1.456       .  S
C2733      H2734   1.080       .  S
C2735      H2745   1.083       .  S
C2735      N2736   1.355       .  A
N2736      C2737   1.358       .  A
N2736      C2840   1.433       .  S
C2737      H2743   1.082       .  S
C2738      H2740   1.082       .  S
C2738      N2739   1.355       .  A
N2739      C2741   1.355       .  A
N2739      C2854   1.434       .  S
C2741      H2742   1.082       .  S
C2746      C2748   1.551       .  S
C2746      C2750   1.540       .  S
C2746      C2749   1.533       .  S
C2746      C2784   1.506       .  S
C2747      C2751   1.541       .  S
C2747      C2753   1.531       .  S
C2747      C2752   1.542       .  S
C2747      C2773   1.507       .  S
C2748      C2756   1.387       .  A
C2748      C2751   1.390       .  A
C2749      C2760   1.380       .  A
C2749      C2752   1.382       .  A
C2750      C2764   1.384       .  A
C2750      C2753   1.386       .  A
C2751      C2754   1.381       .  A
C2752      C2758   1.379       .  A
C2753      C2761   1.375       .  A
C2754      H2767   1.081       .  S
C2754      N2755   1.353       .  A
N2755      C2756   1.355       .  A
N2755      C2829   1.433       .  S
C2756      H2757   1.082       .  S
C2758      H2768   1.080       .  S
C2758      N2759   1.361       .  A
N2759      C2760   1.360       .  A
N2759      C2801   1.450       .  S
C2760      H2766   1.082       .  S
C2761      H2763   1.083       .  S
C2761      N2762   1.355       .  A
N2762      C2764   1.357       .  A
N2762      C2815   1.433       .  S
C2764      H2765   1.081       .  S
C2769      C2770   1.408       .  A
C2769      C2774   1.391       .  A
C2769      H2776   1.083       .  S
C2770      C2771   1.418       .  A
C2771      C2772   1.392       .  A
C2771      N2778   1.436       .  S
C2772      C2773   1.404       .  A
C2772      H2777   1.082       .  S
C2773      C2774   1.408       .  A
C2774      N2775   1.438       .  S
N2775      H2779   1.045       .  S
N2775      H2780   1.045       .  S
N2778      H2781   1.043       .  S
N2778      H2782   1.043       .  S
C2783      C2788   1.391   1_554  A
C2785      C2786   1.390   1_554  A
C2786      C2787   1.406       .  A
C2786      H2791   1.081       .  S
C2787      C2788   1.407       .  A
C2788      N2789   1.432       .  S
N2789      H2793   1.044       .  S
N2789      H2794   1.046       .  S
N2792      H2795   1.041       .  S
C2797      C2798   1.398       .  A
C2797      C2802   1.404       .  A
C2797      H2804   1.084       .  S
C2798      C2799   1.405       .  A
C2799      C2800   1.406       .  A
C2799      N2806   1.432       .  S
C2800      C2801   1.409       .  A
C2800      H2805   1.082       .  S
C2801      C2802   1.419       .  A
C2802      N2803   1.437       .  S
N2803      H2807   1.045       .  S
N2803      H2808   1.046       .  S
N2806      H2809   1.045       .  S
N2806      H2810   1.046       .  S
C2811      C2812   1.409       .  A
C2811      C2816   1.404       .  A
C2812      C2813   1.414       .  A
C2813      C2814   1.406       .  A
C2813      N2820   1.436       .  S
C2814      C2815   1.399       .  A
C2814      H2819   1.084       .  S
C2815      C2816   1.411       .  A
C2816      N2817   1.437       .  S
N2817      H2822   1.045       .  S
N2820      H2823   1.043       .  S
N2820      H2824   1.046       .  S
C2825      C2826   1.405       .  A
C2825      C2830   1.407       .  A
C2825      H2832   1.084       .  S
C2826      C2827   1.416       .  A
C2827      C2828   1.402       .  A
C2827      N2834   1.433       .  S
C2828      C2829   1.400       .  A
C2828      H2833   1.083       .  S
C2829      C2830   1.407       .  A
C2830      N2831   1.437       .  S
N2831      H2835   1.045       .  S
N2831      H2836   1.046       .  S
N2834      H2837   1.045       .  S
N2834      H2838   1.044       .  S
C2839      C2840   1.400       .  A
C2839      C2844   1.405       .  A
C2839      H2846   1.084       .  S
C2840      C2841   1.408       .  A
C2841      C2842   1.403       .  A
C2841      N2848   1.431       .  S
C2842      C2843   1.400       .  A
C2842      H2847   1.084       .  S
C2843      C2844   1.413       .  A
C2844      N2845   1.438       .  S
N2845      H2849   1.046       .  S
N2845      H2850   1.045       .  S
N2848      H2851   1.046       .  S
N2848      H2852   1.046       .  S
C2853      C2854   1.400       .  A
C2853      C2858   1.404       .  A
C2853      H2860   1.083       .  S
C2854      C2855   1.403       .  A
C2855      C2856   1.401       .  A
C2855      N2862   1.431       .  S
C2856      C2857   1.408       .  A
C2857      C2858   1.418       .  A
C2858      N2859   1.439       .  S
N2859      H2863   1.046       .  S
N2859      H2864   1.045       .  S
N2862      H2865   1.043       .  S
C2867      C2868   1.396       .  A
C2867      C2872   1.396       .  A
C2867      H2874   1.082       .  S
C2868      C2869   1.412       .  A
C2869      C2870   1.410       .  A
C2869      N2876   1.435       .  S
C2870      C2871   1.413       .  A
C2870      H2875   1.082       .  S
C2871      C2872   1.418       .  A
C2872      N2873   1.430       .  S
N2873      H2877   1.045       .  S
N2873      H2878   1.047       .  S
N2876      H2879   1.045       .  S
N2876      H2880   1.044       .  S
C2881      C2882   1.401       .  A
C2881      C2886   1.413       .  A
C2881      H2888   1.083       .  S
C2882      C2883   1.414       .  A
C2883      C2884   1.402       .  A
C2883      N2890   1.438       .  S
C2884      C2885   1.406       .  A
C2884      H2889   1.084       .  S
C2885      C2886   1.422       .  A
C2886      N2887   1.438       .  S
N2887      H2891   1.045       .  S
N2887      H2892   1.046       .  S
N2890      H2893   1.043       .  S
N2890      H2894   1.045       .  S
C2895      C2896   1.401       .  A
C2895      C2900   1.405       .  A
C2895      H2902   1.084       .  S
C2896      C2897   1.417       .  A
C2897      C2898   1.405       .  A
C2897      N2904   1.437       .  S
C2898      C2899   1.401       .  A
C2898      H2903   1.084   1_655  S
C2899      C2900   1.413       .  A
C2900      N2901   1.439       .  S
N2901      H2905   1.046       .  S
N2901      H2906   1.045       .  S
N2904      H2907   1.044       .  S
N2904      H2908   1.045   1_655  S
C2909      C2910   1.399       .  A
C2909      C2914   1.398       .  A
C2909      H2916   1.083       .  S
C2910      C2911   1.411       .  A
C2911      C2912   1.403       .  A
C2911      N2918   1.438       .  S
C2912      C2913   1.407       .  A
C2912      H2917   1.083       .  S
C2913      C2914   1.421       .  A
C2914      N2915   1.427       .  S
N2915      H2919   1.045       .  S
N2915      H2920   1.045       .  S
N2918      H2921   1.046       .  S
N2918      H2922   1.046       .  S
C2923      C2924   1.392       .  A
C2923      C2928   1.399       .  A
C2923      H2930   1.084       .  S
C2924      C2925   1.406       .  A
C2925      C2926   1.399       .  A
C2926      C2927   1.402       .  A
C2926      H2931   1.084       .  S
C2927      C2928   1.420       .  A
C2928      N2929   1.439       .  S
N2932      H2935   1.042       .  S
C2937      C2942   1.395       .  A
C2937      H2944   1.083       .  S
C2938      C2939   1.414       .  A
C2939      C2940   1.399       .  A
C2939      N2946   1.438       .  S
C2940      C2941   1.397       .  A
C2940      H2945   1.081       .  S
C2942      N2943   1.436       .  S
N2943      H2947   1.043       .  S
N2943      H2948   1.045       .  S
N2946      H2949   1.045       .  S
N2946      H2950   1.046       .  S
C2951      C2952   1.407       .  A
C2952      C2953   1.418       .  A
C2953      C2954   1.412       .  A
C2953      N2960   1.437       .  S
C2954      C2955   1.402       .  A
C2954      H2959   1.083       .  S
C2956      N2957   1.438       .  S
N2957      H2961   1.046       .  S
N2957      H2962   1.043       .  S
N2960      H2963   1.045   1_556  S
N2960      H2964   1.046       .  S
C2965      C2966   1.399       .  A
C2965      C2970   1.384       .  A
C2965      H2972   1.084       .  S
C2966      C2967   1.410       .  A
C2967      C2968   1.388       .  A
C2967      N2974   1.438       .  S
C2968      C2969   1.404       .  A
C2968      H2973   1.081       .  S
C2969      C2970   1.422       .  A
C2970      N2971   1.439       .  S
N2971      H2975   1.045       .  S
N2971      H2976   1.039       .  S
N2974      H2977   1.046       .  S
N2974      H2978   1.046       .  S
C2979      C2980   1.405       .  A
C2979      C2984   1.391       .  A
C2979      H2986   1.081       .  S
C2980      C2981   1.407       .  A
C2981      C2982   1.384       .  A
C2981      N2988   1.433       .  S
C2982      C2983   1.405       .  A
C2982      H2987   1.082       .  S
C2983      C2984   1.417       .  A
C2984      N2985   1.439       .  S
N2985      H2989   1.045       .  S
N2985      H2990   1.041       .  S
N2988      H2991   1.045       .  S
N2988      H2992   1.047       .  S
