geometry optimzed in LAMMPS
_audit_creation_date              2020-11-30 
_audit_creation_method            'lammps2cif' 
_symmetry_space_group_name_H-M    'P1' 
_symmetry_Int_Tables_number       1 
_symmetry_cell_setting            triclinic 
loop_ 
_symmetry_equiv_pos_as_xyz 
  x,y,z 
_cell_length_a                    27.40331721 
_cell_length_b                    27.42381964733615 
_cell_length_c                    27.430809686691713 
_cell_angle_alpha                 90.09219922142452 
_cell_angle_beta                  89.87996163284741 
_cell_angle_gamma                 90.35530904293434 
loop_ 
_atom_site_label 
_atom_site_type_symbol 
_atom_site_fract_x 
_atom_site_fract_y 
_atom_site_fract_z 
_atom_site_charge 
C1          C  0.15951626  0.74592898  0.95707657     0.79600
N2          N  0.11440721  0.76395166  0.95433327    -0.78700
C3          C  0.08769395  0.76999932  0.99471402     0.82000
N4          N  0.10604931  0.75831806  0.03854167    -0.78700
C5          C  0.15223796  0.74243096  0.04185191     0.82100
N6          N  0.17973394  0.73590759  0.00100314    -0.80400
C7          C  0.31953403  0.64094818  0.04231872     0.79600
N8          N  0.33254801  0.59351256  0.04193401    -0.78700
C9          C  0.33783521  0.56838073  0.99984206     0.82000
N10         N  0.33040073  0.59088669  0.95664041    -0.78700
C11         C  0.31828252  0.63867438  0.95457152     0.82100
N12         N  0.31192028  0.66402111  0.99801506    -0.80400
C13         C  0.82391456  0.20248124  0.04350105     0.79600
N14         N  0.86881483  0.22298719  0.04054078    -0.78700
C15         C  0.88562937  0.23950764  0.99774987     0.82000
N16         N  0.85829005  0.23480141  0.95790653    -0.78700
C17         C  0.81477576  0.21201332  0.95925701     0.82100
N18         N  0.79641826  0.19586259  0.00247323    -0.80400
C19         C  0.65579693  0.28433702  0.95653840     0.79600
N20         N  0.65982348  0.25933954  0.00018039    -0.78700
C21         C  0.65640866  0.28420360  0.04402922     0.82000
N22         N  0.65084302  0.33335932  0.04305750    -0.78700
C23         C  0.64781670  0.35803806  0.00046283     0.82100
N24         N  0.65025928  0.33341094  0.95780782    -0.80400
C25         C  0.77377444  0.91895942  0.17224686     0.79600
N26         N  0.76392248  0.96267699  0.19349957    -0.78700
C27         C  0.77156548  0.00427497  0.16738134     0.82000
N28         N  0.78923798  0.00180386  0.12166572    -0.78700
C29         C  0.80079695  0.95829751  0.10221840     0.82100
N30         N  0.79213080  0.91706890  0.12696754    -0.80400
C31         C  0.66708014  0.00580555  0.33749074     0.79600
N32         N  0.61898368  0.00519526  0.34860195    -0.78700
C33         C  0.59351602  0.96308646  0.35259645     0.82000
N34         N  0.61657188  0.92002861  0.34601458    -0.78700
C35         C  0.66508156  0.91824060  0.33578692     0.82100
N36         N  0.69060906  0.96175926  0.33041707    -0.80400
C37         C  0.23641653  0.00667374  0.84036207     0.79600
N38         N  0.22558038  0.96401955  0.81697870    -0.78700
C39         C  0.24301714  0.92159902  0.83577931     0.82000
N40         N  0.27182607  0.92270193  0.87589776    -0.78700
C41         C  0.28362436  0.96475937  0.89839793     0.82100
N42         N  0.26495466  0.00634656  0.88069782    -0.80400
C43         C  0.31190625  0.91801746  0.67383649     0.79600
N44         N  0.36093881  0.91967982  0.66767175    -0.78700
C45         C  0.38517300  0.96265285  0.66475477     0.82000
N46         N  0.36029053  0.00501517  0.66812734    -0.78700
C47         C  0.31114193  0.00541065  0.67427443     0.82100
N48         N  0.28663196  0.96135934  0.67800108    -0.80400
C49         C  0.81800483  0.74186936  0.04297608     0.79600
N50         N  0.79093182  0.73602580  0.00173227    -0.78700
C51         C  0.81202130  0.74641456  0.95804018     0.82000
N52         N  0.85728981  0.76441419  0.95596201    -0.78700
C53         C  0.88372977  0.76940678  0.99652845     0.82100
N54         N  0.86466595  0.75726054  0.04011724    -0.80400
C55         C  0.65685707  0.64346342  0.04405240     0.79600
N56         N  0.65165469  0.59422012  0.04296565    -0.78700
C57         C  0.64742437  0.56951240  0.00051665     0.82000
N58         N  0.64801962  0.59427120  0.95796768    -0.78700
C59         C  0.65294513  0.64353340  0.95670296     0.82100
N60         N  0.65848031  0.66860136  0.00029531    -0.80400
C61         C  0.15877769  0.21502366  0.95718842     0.79600
N62         N  0.17878199  0.20133162  0.00025151    -0.78700
C63         C  0.15322834  0.21088288  0.04180455     0.82000
N64         N  0.10832543  0.23126626  0.03953836    -0.78700
C65         C  0.09003150  0.24528949  0.99655301     0.82100
N66         N  0.11616401  0.23870895  0.95634023    -0.80400
C67         C  0.32157475  0.28842993  0.95430778     0.79600
N68         N  0.31389535  0.26326575  0.99773351    -0.78700
C69         C  0.32121195  0.28631314  0.04230031     0.82000
N70         N  0.33526515  0.33359240  0.04209375    -0.78700
C71         C  0.34167689  0.35853428  0.99999250     0.82100
N72         N  0.33462211  0.33601681  0.95664084    -0.80400
C73         C  0.76832801  0.92034368  0.83037764     0.79600
N74         N  0.78606011  0.91991983  0.87574860    -0.78700
C75         C  0.79469473  0.96187914  0.89919282     0.82000
N76         N  0.78370635  0.00471520  0.87847745    -0.78700
C77         C  0.76682717  0.00569239  0.83250833     0.82100
N78         N  0.75937458  0.96335614  0.80744435    -0.80400
C79         C  0.67019998  0.00512695  0.67323367     0.79600
N80         N  0.69509741  0.96144602  0.67481641    -0.78700
C81         C  0.66975444  0.91804263  0.66864191     0.82000
N82         N  0.62062129  0.91930016  0.66314442    -0.78700
C83         C  0.59617193  0.96180296  0.66268055     0.82100
N84         N  0.62107120  0.00411417  0.66750640    -0.80400
C85         C  0.22488199  0.00566827  0.15787822     0.79600
N86         N  0.24930295  0.00525849  0.11488826    -0.78700
C87         C  0.26293872  0.96353321  0.09332160     0.82000
N88         N  0.24953199  0.92133296  0.11449304    -0.78700
C89         C  0.22505061  0.92022403  0.15747829     0.82100
N90         N  0.21331407  0.96278944  0.18032549    -0.80400
C91         C  0.31035342  0.91914580  0.33189383     0.79600
N92         N  0.35871239  0.92090522  0.34228558    -0.78700
C93         C  0.38251211  0.96406322  0.34706374     0.82000
N94         N  0.35796869  0.00625948  0.34097249    -0.78700
C95         C  0.30986494  0.00657276  0.32997903     0.82100
N96         N  0.28569276  0.96246948  0.32487529    -0.80400
C97         C  0.94315374  0.13888070  0.78992835     0.79600
N98         N  0.94033849  0.09419598  0.80935375    -0.78700
C99         C  0.98057480  0.06721798  0.81488364     0.82000
N100        N  0.02438694  0.08498177  0.80129057    -0.78700
C101        C  0.02803449  0.13066013  0.78382084     0.82100
N102        N  0.98727628  0.15831552  0.77778803    -0.80400
C103        C  0.94112913  0.29278678  0.67832316     0.79600
N104        N  0.98487211  0.28701874  0.70319541    -0.78700
C105        C  0.02896022  0.29199635  0.67852305     0.82000
N106        N  0.02806314  0.30107833  0.63022055    -0.78700
C107        C  0.98568191  0.30604474  0.60599639     0.82100
N108        N  0.94272297  0.30171082  0.62980333    -0.80400
C109        C  0.02876076  0.79850796  0.78308282     0.79600
N110        N  0.02609249  0.84440852  0.80070492    -0.78700
C111        C  0.98252045  0.86261545  0.81435469     0.82000
N112        N  0.94177872  0.83584299  0.80893085    -0.78700
C113        C  0.94342895  0.79152520  0.78867614     0.82100
N114        N  0.98718667  0.77153603  0.77659125    -0.80400
C115        C  0.93998914  0.63276339  0.68166728     0.79600
N116        N  0.98354550  0.63990421  0.70631032    -0.78700
C117        C  0.02732850  0.63786770  0.68109878     0.82000
N118        N  0.02626615  0.63037445  0.63215367    -0.78700
C119        C  0.98374419  0.62440483  0.60780664     0.82100
N120        N  0.94125109  0.62569945  0.63275993    -0.80400
C121        C  0.02832236  0.79936725  0.23919626     0.79600
N122        N  0.02632644  0.84338207  0.26121554    -0.78700
C123        C  0.98502237  0.85864606  0.28207754     0.82000
N124        N  0.94534442  0.83035080  0.28018227    -0.78700
C125        C  0.94520783  0.78831126  0.25475915     0.82100
N126        N  0.98717403  0.77155701  0.23439602    -0.80400
C127        C  0.02675964  0.63342536  0.32282765     0.79600
N128        N  0.98315940  0.63752533  0.29787533    -0.78700
C129        C  0.93926637  0.63223209  0.32242361     0.82000
N130        N  0.93991150  0.62473646  0.37125979    -0.78700
C131        C  0.98227888  0.62132520  0.39605542     0.82100
N132        N  0.02522392  0.62567870  0.37171584    -0.80400
C133        C  0.94496826  0.13252315  0.24224660     0.79600
N134        N  0.94436175  0.08809492  0.26263989    -0.78700
C135        C  0.98488181  0.06211023  0.26726342     0.82000
N136        N  0.02754861  0.08109645  0.25287193    -0.78700
C137        C  0.02975178  0.12700746  0.23501833     0.82100
N138        N  0.98812916  0.15345378  0.22887130    -0.80400
C139        C  0.03073139  0.28942077  0.32412093     0.79600
N140        N  0.03033685  0.29854407  0.37252008    -0.78700
C141        C  0.98821818  0.30559231  0.39705529     0.82000
N142        N  0.94498178  0.30322108  0.37338907    -0.78700
C143        C  0.94291757  0.29414853  0.32483763     0.82100
N144        N  0.98639378  0.28648733  0.29979392    -0.80400
C145        C  0.22973106  0.50432010  0.32240734     0.79600
N146        N  0.20314167  0.50503077  0.36359633    -0.78700
C147        C  0.19848227  0.46562299  0.39147590     0.82000
N148        N  0.21739432  0.42326812  0.37622998    -0.78700
C149        C  0.24078346  0.42039844  0.33281917     0.82100
N150        N  0.24854528  0.46153220  0.30569363    -0.80400
C151        C  0.08783959  0.46092219  0.16130038     0.79600
N152        N  0.11112775  0.50425939  0.16594398    -0.78700
C153        C  0.15982687  0.50664234  0.17391048     0.82000
N154        N  0.18561337  0.46338339  0.17807959    -0.78700
C155        C  0.16173505  0.41890174  0.17287950     0.82100
N156        N  0.11300392  0.41889108  0.16493809    -0.80400
O157        O  0.14445621  0.70966167  0.11999405    -0.87100
O158        O  0.38772664  0.77431919  0.24488152    -0.87300
O159        O  0.24447056  0.83873876  0.15820857    -0.89000
O160        O  0.29845415  0.70819035  0.09569314    -0.87700
O161        O  0.30377251  0.63170445  0.12843260    -0.87300
O162        O  0.19927385  0.86803774  0.22245825    -0.88700
O163        O  0.35576512  0.77771455  0.16781945    -0.87200
O164        O  0.21378610  0.75225951  0.09748928    -0.86700
Zr165      Zr  0.26733275  0.75433317  0.16569009     2.84300
O166        O  0.31442544  0.70658253  0.21566693    -1.08700
O167        O  0.18982350  0.76023734  0.20235625    -1.09400
C168        C  0.17160542  0.73361617  0.08946519     1.06000
C169        C  0.39208695  0.78134015  0.19842802     1.05900
C170        C  0.22140562  0.87266566  0.18108309     1.08900
C171        C  0.30711335  0.66217472  0.09178819     1.06700
H172        H  0.28729927  0.82367223  0.23708528     0.32200
O173        O  0.27141846  0.79257757  0.24175309    -1.29700
H174        H  0.22223496  0.66336782  0.13697823     0.31900
O175        O  0.22670458  0.67819086  0.16859159    -1.31300
O176        O  0.31991031  0.71672886  0.37855224    -0.87100
O177        O  0.08005341  0.65324196  0.25460370    -0.88600
O178        O  0.24268394  0.86712299  0.31099351    -0.87200
O179        O  0.36225428  0.62652651  0.23977344    -0.87200
O180        O  0.22773827  0.56099703  0.18846642    -0.87000
O181        O  0.11010953  0.80456402  0.25398489    -0.86800
O182        O  0.17261357  0.71896850  0.40108859    -0.87100
O183        O  0.21708475  0.58661897  0.32471523    -0.86600
O184        O  0.17047583  0.79599973  0.36892744    -0.87700
O185        O  0.26740813  0.55746983  0.26472082    -0.86800
O186        O  0.31815440  0.83248369  0.31982779    -0.87200
O187        O  0.08131363  0.73899318  0.20962195    -0.86900
O188        O  0.15093273  0.59368210  0.18541806    -0.86600
O189        O  0.38722041  0.69307564  0.28501039    -0.87000
O190        O  0.25167358  0.67206747  0.40015298    -0.87300
O191        O  0.11300874  0.64689052  0.33101972    -0.88600
Zr192      Zr  0.31764340  0.74456042  0.29316543     2.83100
Zr193      Zr  0.14938195  0.68382021  0.20515569     2.83500
Zr194      Zr  0.19406851  0.79941024  0.27900281     2.84100
Zr195      Zr  0.27666074  0.63028195  0.21647595     2.83400
Zr196      Zr  0.20072087  0.67286354  0.32992761     2.84200
O197        O  0.19881447  0.63644960  0.25330687    -1.09200
O198        O  0.24018156  0.74939500  0.32810115    -1.08700
C199        C  0.29336009  0.69154303  0.40882444     1.06000
C200        C  0.07629930  0.64435352  0.30082998     1.08600
C201        C  0.28856706  0.86978407  0.32115405     1.06100
C202        C  0.39419431  0.65225102  0.26332994     1.06500
C203        C  0.18121670  0.55688165  0.18265171     1.06100
C204        C  0.07644481  0.78002818  0.23182714     1.05600
C205        C  0.16640566  0.76532449  0.40563073     1.06000
C206        C  0.23926525  0.55205403  0.30180743     1.05600
H207        H  0.12329229  0.72802186  0.29752739     0.32200
O208        O  0.15449655  0.72351332  0.28197777    -1.30300
H209        H  0.29913716  0.64521564  0.31595632     0.32300
O210        O  0.27991183  0.66631845  0.29550667    -1.31700
C211        C  0.31931793  0.21748156  0.45488293     0.79600
N212        N  0.29213042  0.22270183  0.49632596    -0.78700
C213        C  0.31002535  0.20382152  0.53851335     0.82000
N214        N  0.35263137  0.17962165  0.53825990    -0.78700
C215        C  0.37987949  0.17693621  0.49799480     0.82100
N216        N  0.36346050  0.19621989  0.45658810    -0.80400
C217        C  0.15491835  0.13826899  0.45559156     0.79600
N218        N  0.14152390  0.09094004  0.45600350    -0.78700
C219        C  0.13498183  0.06647162  0.49815767     0.82000
N220        N  0.14212876  0.08894916  0.54150260    -0.78700
C221        C  0.15505461  0.13656814  0.54369650     0.82100
N222        N  0.16227161  0.16164277  0.50008210    -0.80400
O223        O  0.24656400  0.08978859  0.84331661    -0.87100
O224        O  0.17263579  0.20369133  0.59736118    -0.87300
O225        O  0.10638851  0.12159523  0.75009351    -0.89000
O226        O  0.24174273  0.05713235  0.69193174    -0.87700
O227        O  0.31783001  0.09182298  0.68459773    -0.87300
O228        O  0.08485226  0.19211131  0.79064972    -0.88700
O229        O  0.16955294  0.12716311  0.63123819    -0.87200
O230        O  0.20256493  0.05796703  0.77909043    -0.86700
Zr231      Zr  0.19180444  0.12557765  0.72191534     2.84300
O232        O  0.23989612  0.17475620  0.67273737    -1.08700
O233        O  0.18961613  0.16704382  0.79795763    -1.09400
C234        C  0.22601558  0.05446520  0.81980123     1.06000
C235        C  0.16604605  0.15729498  0.59395540     1.05900
C236        C  0.07610059  0.14952318  0.77344625     1.08900
C237        C  0.28812566  0.05442086  0.68323937     1.06700
H238        H  0.12435222  0.19759436  0.70094084     0.32200
O239        O  0.15620117  0.20267379  0.71501547    -1.29700
H240        H  0.28581635  0.10331541  0.76445401     0.31900
O241        O  0.26957528  0.13396517  0.75909902    -1.31300
O242        O  0.22477014  0.33723876  0.65812690    -0.87100
O243        O  0.30036445  0.22219810  0.90104798    -0.88600
O244        O  0.08312178  0.27411799  0.74548232    -0.87200
O245        O  0.31393564  0.19188514  0.62086389    -0.87200
O246        O  0.38784380  0.15010348  0.75207148    -0.87000
O247        O  0.15480030  0.22542815  0.87523835    -0.86800
O248        O  0.22885213  0.36720146  0.80728348    -0.87100
O249        O  0.36578584  0.30281615  0.75030094    -0.86600
O250        O  0.15238882  0.33313418  0.81210731    -0.87700
O251        O  0.38635213  0.23365367  0.70701224    -0.86800
O252        O  0.11502094  0.27760770  0.66838234    -0.87200
O253        O  0.21926136  0.18206955  0.90556522    -0.86900
O254        O  0.35613203  0.14987909  0.82923904    -0.86600
O255        O  0.25175048  0.23936111  0.59222240    -0.87000
O256        O  0.27047812  0.36713714  0.72208831    -0.87300
O257        O  0.30759489  0.29831346  0.86685749    -0.88600
Zr258      Zr  0.20341092  0.25191825  0.66514139     2.83100
Zr259      Zr  0.26805292  0.17451426  0.83349610     2.83500
Zr260      Zr  0.15414197  0.24481926  0.78987757     2.84100
Zr261      Zr  0.31710502  0.18015545  0.70750673     2.83400
Zr262      Zr  0.28048747  0.29903132  0.77746488     2.84200
O263        O  0.31620299  0.22164258  0.78280967    -1.09200
O264        O  0.20283946  0.29205227  0.74013196    -1.08700
C265        C  0.24699975  0.37159285  0.68166241     1.06000
C266        C  0.30977455  0.26813508  0.90418756     1.08600
C267        C  0.07867824  0.28127953  0.69934899     1.06100
C268        C  0.28964262  0.21251378  0.58652161     1.06500
C269        C  0.39217969  0.14420737  0.79843074     1.06100
C270        C  0.17940773  0.20581300  0.91001038     1.05600
C271        C  0.18218687  0.37029671  0.81500643     1.06000
C272        C  0.39563794  0.27554374  0.72582701     1.05600
H273        H  0.22691995  0.26865953  0.85650344     0.32200
O274        O  0.23072810  0.25159201  0.82604309    -1.30300
H275        H  0.30248105  0.27775251  0.67807182     0.32300
O276        O  0.28248147  0.25879609  0.70010151    -1.31700
C277        C  0.31430183  0.68080219  0.45582332     0.79600
N278        N  0.36030864  0.66409945  0.45637890    -0.78700
C279        C  0.38162716  0.65326374  0.49900422     0.82000
N280        N  0.35869931  0.66197273  0.54124852    -0.78700
C281        C  0.31314080  0.67931239  0.54138928     0.82100
N282        N  0.28971257  0.68809289  0.49850682    -0.80400
C283        C  0.15380240  0.78745691  0.54409388     0.79600
N284        N  0.14217295  0.83531107  0.54215156    -0.78700
C285        C  0.13643193  0.85828961  0.49899571     0.82000
N286        N  0.14302716  0.83400737  0.45665973    -0.78700
C287        C  0.15491393  0.78635253  0.45583836     0.82100
N288        N  0.16087174  0.76250468  0.50026280    -0.80400
C289        C  0.23753848  0.50491354  0.66493614     0.79600
N290        N  0.25005623  0.46169306  0.68581474    -0.78700
C291        C  0.24181738  0.41962639  0.66018169     0.82000
N292        N  0.22276358  0.42145138  0.61467180    -0.78700
C293        C  0.20997836  0.46440879  0.59532134     0.82100
N294        N  0.21654947  0.50533473  0.62085001    -0.80400
C295        C  0.15933475  0.41941753  0.82644288     0.79600
N296        N  0.11046782  0.42006362  0.83596166    -0.78700
C297        C  0.08632420  0.46270247  0.84268956     0.82000
N298        N  0.11103936  0.50549089  0.83953008    -0.78700
C299        C  0.15953764  0.50701099  0.82997842     0.82100
N300        N  0.18394970  0.46350590  0.82271188    -0.80400
O301        O  0.15517141  0.70897048  0.88150714    -0.87100
O302        O  0.38958678  0.77385194  0.75232396    -0.87300
O303        O  0.30102648  0.70544930  0.90028245    -0.89000
O304        O  0.25674866  0.83902704  0.83607736    -0.87700
O305        O  0.20779388  0.86877294  0.77522604    -0.87300
O306        O  0.30238451  0.62832224  0.86825368    -0.88700
O307        O  0.35830065  0.77990113  0.82954968    -0.87200
O308        O  0.22364284  0.75302480  0.90312276    -0.86700
Zr309      Zr  0.27163552  0.75295095  0.83118586     2.84300
O310        O  0.27162501  0.79025371  0.75505565    -1.08700
O311        O  0.23189224  0.67668212  0.82951921    -1.09400
C312        C  0.18194487  0.73380436  0.91164746     1.06000
C313        C  0.39411446  0.78314242  0.79846523     1.05900
C314        C  0.30689883  0.65909116  0.90463701     1.08900
C315        C  0.23445518  0.87363217  0.81383150     1.06700
H316        H  0.34914835  0.69819300  0.79562911     0.32200
O317        O  0.31725643  0.70285251  0.78154347    -1.29700
H318        H  0.17327717  0.78155462  0.82067385     0.31900
O319        O  0.19176178  0.76083137  0.79909111    -1.31300
O320        O  0.31975743  0.71461811  0.61886309    -0.87100
O321        O  0.08184045  0.65523818  0.74920513    -0.88600
O322        O  0.36286881  0.61914176  0.75129594    -0.87200
O323        O  0.24318798  0.86592266  0.69072905    -0.87200
O324        O  0.10753368  0.80487673  0.74884803    -0.87000
O325        O  0.22771695  0.55937899  0.81037304    -0.86800
O326        O  0.22148977  0.58715154  0.66460100    -0.87100
O327        O  0.17224594  0.72075243  0.59865083    -0.86600
O328        O  0.26821116  0.55676348  0.72703522    -0.87700
O329        O  0.16648973  0.79737575  0.63174056    -0.86800
O330        O  0.38604974  0.68685918  0.70673261    -0.87200
O331        O  0.15238836  0.59424575  0.82077049    -0.86900
O332        O  0.08489999  0.73667425  0.79286382    -0.86600
O333        O  0.31902902  0.83132356  0.68351748    -0.87000
O334        O  0.25021330  0.67221673  0.59698808    -0.87300
O335        O  0.11282588  0.65196862  0.67170575    -0.88600
Zr336      Zr  0.31920479  0.74236922  0.70474839     2.83100
Zr337      Zr  0.15365108  0.68291064  0.79616928     2.83500
Zr338      Zr  0.27804314  0.62690073  0.77937590     2.84100
Zr339      Zr  0.19285492  0.79872909  0.72113850     2.83400
Zr340      Zr  0.20119273  0.67327870  0.66842615     2.84200
O341        O  0.15520943  0.72191440  0.71936157    -1.09200
O342        O  0.27982521  0.66566652  0.70216691    -1.08700
C343        C  0.29241306  0.69041941  0.58840002     1.06000
C344        C  0.07688070  0.64863032  0.70274412     1.08600
C345        C  0.39373632  0.64519286  0.72637638     1.06100
C346        C  0.28949127  0.86862522  0.68242106     1.06500
C347        C  0.07668779  0.77842391  0.77346139     1.06100
C348        C  0.18177479  0.55667586  0.82076447     1.05600
C349        C  0.24355011  0.55240222  0.68745845     1.06000
C350        C  0.16415902  0.76686504  0.59462126     1.05600
H351        H  0.18242644  0.60481541  0.73997459     0.32200
O352        O  0.19946861  0.63533352  0.74423139    -1.30300
H353        H  0.24602519  0.76418468  0.64020822     0.32300
O354        O  0.24122306  0.74952616  0.67182818    -1.31700
C355        C  0.70142056  0.41929487  0.33214518     0.79600
N356        N  0.68404661  0.42126677  0.37810868    -0.78700
C357        C  0.67253852  0.46463014  0.39793380     0.82000
N358        N  0.68002868  0.50592016  0.37289059    -0.78700
C359        C  0.69944705  0.50465294  0.32816851     0.82100
N360        N  0.70943260  0.46116228  0.30649265    -0.80400
C361        C  0.80611367  0.50667994  0.16776820     0.79600
N362        N  0.85470633  0.50483780  0.15826617    -0.78700
C363        C  0.87812353  0.46174120  0.15424310     0.82000
N364        N  0.85319182  0.41959633  0.16003312    -0.78700
C365        C  0.80494062  0.41891002  0.17015764     0.82100
N366        N  0.78084200  0.46309295  0.17474932    -0.80400
C367        C  0.52667517  0.63314343  0.27197294     0.79600
N368        N  0.48371723  0.65686315  0.26527260    -0.78700
C369        C  0.44137752  0.63072730  0.26908806     0.82000
N370        N  0.44233100  0.58297128  0.27992464    -0.78700
C371        C  0.48518186  0.56147616  0.28862236     0.82100
N372        N  0.52697272  0.58625585  0.28451666    -0.80400
C373        C  0.48569899  0.80673435  0.10369596     0.79600
N374        N  0.52841803  0.80313934  0.12825387    -0.78700
C375        C  0.52955318  0.79469914  0.17703466     0.82000
N376        N  0.48559871  0.78847791  0.20151137    -0.78700
C377        C  0.44175806  0.79242865  0.17664580     0.82100
N378        N  0.44296396  0.80123305  0.12793080    -0.80400
O379        O  0.73411507  0.84390459  0.16831079    -0.87100
O380        O  0.79757362  0.71393470  0.40366177    -0.87300
O381        O  0.73200035  0.86379083  0.31669121    -0.89000
O382        O  0.86364071  0.78967955  0.27032799    -0.87700
O383        O  0.89134002  0.73061395  0.21804392    -0.87300
O384        O  0.65447131  0.83249564  0.32000292    -0.88700
O385        O  0.80485461  0.79119114  0.37271858    -0.87200
O386        O  0.78099972  0.86380929  0.23530319    -0.86700
Zr387      Zr  0.77772137  0.79337942  0.28586199     2.84300
O388        O  0.81322200  0.71640756  0.28459198    -1.08700
O389        O  0.70117410  0.79365021  0.24726565    -1.09400
C390        C  0.76103015  0.87312965  0.19423452     1.06000
C391        C  0.80728913  0.76005025  0.40854575     1.05900
C392        C  0.68568377  0.86851573  0.32394300     1.08900
C393        C  0.89745208  0.76714041  0.24691396     1.06700
H394        H  0.72347377  0.75873327  0.36411192     0.32200
O395        O  0.72756915  0.74459986  0.33229409    -1.29700
H396        H  0.80438786  0.78118411  0.18689572     0.31900
O397        O  0.78314043  0.76040320  0.20590488    -1.31300
O398        O  0.73663219  0.58134718  0.33345437    -0.87100
O399        O  0.67459187  0.71180512  0.09841350    -0.88600
O400        O  0.64655375  0.71443072  0.37954570    -0.87200
O401        O  0.88678007  0.64979686  0.25403211    -0.87200
O402        O  0.82388427  0.70851805  0.12107644    -0.87000
O403        O  0.58274088  0.77546686  0.24529210    -0.86800
O404        O  0.60562918  0.62952733  0.24199556    -0.87100
O405        O  0.73919309  0.56130437  0.18658101    -0.86600
O406        O  0.58047600  0.69582312  0.28733044    -0.87700
O407        O  0.81624412  0.59349486  0.17899679    -0.86800
O408        O  0.71317008  0.66832668  0.40185206    -0.87200
O409        O  0.61672907  0.78523653  0.16936028    -0.86900
O410        O  0.75681795  0.75401105  0.09935966    -0.86600
O411        O  0.85336901  0.64426190  0.33056990    -0.87000
O412        O  0.69214430  0.55974751  0.26537698    -0.87300
O413        O  0.66935929  0.63447343  0.12946504    -0.88600
Zr414      Zr  0.76533164  0.66700399  0.33294880     2.83100
Zr415      Zr  0.70474417  0.75916429  0.16916697     2.83500
Zr416      Zr  0.65154108  0.74456555  0.29461905     2.84100
Zr417      Zr  0.81862019  0.68149430  0.20598281     2.83400
Zr418      Zr  0.69191807  0.63138810  0.21703979     2.84200
O419        O  0.74128218  0.68123339  0.16994781    -1.09200
O420        O  0.68776889  0.66628934  0.29561446    -1.08700
C421        C  0.71142066  0.55106514  0.30681614     1.06000
C422        C  0.66686197  0.66541993  0.09357739     1.08600
C423        C  0.67212626  0.68874214  0.41000499     1.06100
C424        C  0.89012076  0.64192876  0.30031116     1.06500
C425        C  0.79781600  0.73339198  0.09070960     1.06100
C426        C  0.57939808  0.78555679  0.19927288     1.05600
C427        C  0.57356136  0.65513268  0.26565148     1.06000
C428        C  0.78528669  0.55690307  0.17747087     1.05600
H429        H  0.62571661  0.70450781  0.20043504     0.32200
O430        O  0.65682299  0.70840349  0.21628880    -1.30300
H431        H  0.78349372  0.60159310  0.25927349     0.32300
O432        O  0.76919117  0.63326075  0.25508750    -1.31700
C433        C  0.65514812  0.68016486  0.54288795     0.79600
N434        N  0.67768606  0.68758962  0.49922345    -0.78700
C435        C  0.65181825  0.67974424  0.45747614     0.82000
N436        N  0.60565855  0.66340487  0.45956429    -0.78700
C437        C  0.58497637  0.65411718  0.50292084     0.82100
N438        N  0.60893656  0.66377962  0.54442998    -0.80400
C439        C  0.81927010  0.78151328  0.54578596     0.79600
N440        N  0.82872243  0.83021333  0.54455419    -0.78700
C441        C  0.83335339  0.85475068  0.50193144     0.82000
N442        N  0.82846290  0.83018550  0.45935180    -0.78700
C443        C  0.81902043  0.78142970  0.45819441     0.82100
N444        N  0.81349612  0.75682554  0.50200735    -0.80400
C445        C  0.52687651  0.63505397  0.71576006     0.79600
N446        N  0.53059832  0.58965916  0.69846937    -0.78700
C447        C  0.49078914  0.56185810  0.69249321     0.82000
N448        N  0.44627852  0.57941575  0.70347768    -0.78700
C449        C  0.44190715  0.62594357  0.71863379     0.82100
N450        N  0.48235405  0.65442596  0.72508376    -0.80400
C451        C  0.48733594  0.81173766  0.89227978     0.79600
N452        N  0.52977516  0.80795037  0.86741693    -0.78700
C453        C  0.53069341  0.79835345  0.81885650     0.82000
N454        N  0.48696048  0.79141331  0.79469525    -0.78700
C455        C  0.44332913  0.79583952  0.81970686     0.82100
N456        N  0.44456590  0.80546497  0.86839379    -0.80400
C457        C  0.70037859  0.41994893  0.66689871     0.79600
N458        N  0.70764289  0.46154564  0.69338646    -0.78700
C459        C  0.69669432  0.50525611  0.67280811     0.82000
N460        N  0.67693583  0.50696469  0.62829463    -0.78700
C461        C  0.67010858  0.46594641  0.60246921     0.82100
N462        N  0.68267396  0.42245191  0.62121600    -0.80400
C463        C  0.87446823  0.46613828  0.84701824     0.79600
N464        N  0.84950064  0.50823286  0.84256138    -0.78700
C465        C  0.80088949  0.50856219  0.83317432     0.82000
N466        N  0.77669231  0.46448492  0.82739395    -0.78700
C467        C  0.80187894  0.42121480  0.83288802     0.82100
N468        N  0.85054836  0.42316394  0.84210242    -0.80400
O469        O  0.81576876  0.71042334  0.88144955    -0.87100
O470        O  0.58477928  0.77851850  0.75130836    -0.87300
O471        O  0.73201830  0.84350450  0.83486168    -0.89000
O472        O  0.67034970  0.71144899  0.90235850    -0.87700
O473        O  0.65989868  0.63489262  0.87025604    -0.87300
O474        O  0.77889376  0.86518520  0.76822672    -0.88700
O475        O  0.61566367  0.78457101  0.82862935    -0.87200
O476        O  0.74895060  0.75598492  0.90409091    -0.86700
Zr477      Zr  0.70203655  0.75863588  0.83212605     2.84300
O478        O  0.65297081  0.71087170  0.78269341    -1.08700
O479        O  0.78122429  0.75942526  0.79787510    -1.09400
C480        C  0.78990482  0.73568503  0.91211595     1.06000
C481        C  0.58003318  0.78723619  0.79746751     1.05900
C482        C  0.75800620  0.87374652  0.80903129     1.08900
C483        C  0.66018772  0.66549896  0.90677178     1.06700
H484        H  0.68893272  0.82491785  0.75848682     0.32200
O485        O  0.70305274  0.79304020  0.75471031    -1.29700
H486        H  0.74123210  0.66572600  0.86220609     0.31900
O487        O  0.73755103  0.68041314  0.83059843    -1.31300
O488        O  0.65266442  0.71770099  0.61904791    -0.87100
O489        O  0.88557142  0.65027288  0.74925976    -0.88600
O490        O  0.73653237  0.86399315  0.68725173    -0.87200
O491        O  0.60167678  0.63380839  0.75465577    -0.87200
O492        O  0.73337885  0.56225857  0.81299800    -0.87000
O493        O  0.86691769  0.79516143  0.75076952    -0.86800
O494        O  0.79831254  0.71401827  0.59992539    -0.87100
O495        O  0.73628325  0.58098795  0.66961540    -0.86600
O496        O  0.80684297  0.79091146  0.63178530    -0.87700
O497        O  0.68690037  0.56107434  0.73492554    -0.86800
O498        O  0.65962894  0.83232191  0.67637178    -0.87200
O499        O  0.88785182  0.72826188  0.79677557    -0.86900
O500        O  0.81056927  0.59383342  0.82082081    -0.86600
O501        O  0.58138575  0.69897556  0.70590622    -0.87000
O502        O  0.71816503  0.66963824  0.59784777    -0.87300
O503        O  0.85365903  0.63964993  0.67270848    -0.88600
Zr504      Zr  0.65442096  0.74616032  0.70410229     2.83100
Zr505      Zr  0.81521652  0.68073959  0.79643299     2.83500
Zr506      Zr  0.78194625  0.79394461  0.71926002     2.84100
Zr507      Zr  0.68661921  0.63291434  0.78318190     2.83400
Zr508      Zr  0.76670278  0.66618602  0.66982677     2.84200
O509        O  0.76544132  0.63253232  0.74796197    -1.09200
O510        O  0.73280994  0.74511820  0.67065726    -1.08700
C511        C  0.67774954  0.69109706  0.58901677     1.06000
C512        C  0.89005851  0.64015186  0.70338698     1.08600
C513        C  0.69085695  0.86841063  0.67658750     1.06100
C514        C  0.57210163  0.65874082  0.72764334     1.06500
C515        C  0.77942680  0.55779933  0.82230097     1.06100
C516        C  0.89693549  0.76942864  0.77685848     1.05600
C517        C  0.80813944  0.76008374  0.59551021     1.06000
C518        C  0.70868724  0.55151463  0.69481398     1.05600
H519        H  0.84673497  0.72072921  0.70396796     0.32200
O520        O  0.81483481  0.71638719  0.71813718    -1.30300
H521        H  0.66658207  0.64643246  0.68339735     0.32300
O522        O  0.68719078  0.66657047  0.70374085    -1.31700
C523        C  0.44419251  0.29505252  0.27795701     0.79600
N524        N  0.48527930  0.26819804  0.27107230    -0.78700
C525        C  0.52918483  0.28869664  0.28189029     0.82000
N526        N  0.53165955  0.33363681  0.30084602    -0.78700
C527        C  0.49093655  0.35960791  0.30743007     0.82100
N528        N  0.44724005  0.34081336  0.29521462    -0.80400
C529        C  0.48616164  0.11220434  0.10228537     0.79600
N530        N  0.52943523  0.11915053  0.12521679    -0.78700
C531        C  0.53125471  0.13068320  0.17338074     0.82000
N532        N  0.48752548  0.13684958  0.19838947    -0.78700
C533        C  0.44326382  0.12978760  0.17471708     0.82100
N534        N  0.44391342  0.11756941  0.12707273    -0.80400
O535        O  0.82725887  0.22073794  0.12527882    -0.87100
O536        O  0.58511410  0.14895003  0.24118594    -0.87300
O537        O  0.73621698  0.08189172  0.16026494    -0.85000
O538        O  0.67669883  0.21597965  0.09634745    -0.87700
O539        O  0.66595427  0.29158659  0.13060954    -0.87300
O540        O  0.77898866  0.06073793  0.22940291    -0.88700
O541        O  0.61846870  0.14392184  0.16466254    -0.87200
O542        O  0.76338331  0.17355859  0.09704460    -0.86700
Zr543      Zr  0.70780298  0.16698926  0.16494930     2.84300
O544        O  0.65783505  0.21423591  0.21389700    -1.08700
O545        O  0.78444447  0.16645795  0.20463827    -1.09400
C546        C  0.80377021  0.19711847  0.09184419     1.06000
C547        C  0.58134304  0.14149698  0.19479127     1.05900
C548        C  0.76088988  0.05190463  0.18720736     1.08900
C549        C  0.66589121  0.26178377  0.09336534     1.06700
H550        H  0.68882742  0.09799109  0.23781367     0.32200
O551        O  0.70295580  0.13004148  0.24176740    -1.29700
H552        H  0.74842143  0.26124069  0.14044719     0.31900
O553        O  0.74384916  0.24564357  0.17160613    -1.31300
O554        O  0.65123061  0.20105586  0.37622070    -0.87100
O555        O  0.88902850  0.27651677  0.25739249    -0.88600
O556        O  0.73405392  0.05971848  0.31544561    -0.87200
O557        O  0.60549324  0.29221565  0.24492084    -0.87200
O558        O  0.73742967  0.36398204  0.18907303    -0.87000
O559        O  0.86370540  0.13039841  0.26000849    -0.86800
O560        O  0.79610203  0.20868543  0.40350863    -0.87100
O561        O  0.73759597  0.34237810  0.33804639    -0.86600
O562        O  0.80130015  0.13198915  0.37057626    -0.87700
O563        O  0.69201311  0.36252456  0.27046594    -0.86800
O564        O  0.65693618  0.09082927  0.32066049    -0.87200
O565        O  0.89230141  0.19553957  0.21560467    -0.86900
O566        O  0.81502747  0.33345781  0.18610413    -0.86600
O567        O  0.58270490  0.22499531  0.29008059    -0.87000
O568        O  0.71330191  0.25039740  0.40440212    -0.87300
O569        O  0.85521988  0.28419271  0.33356770    -0.88600
Zr570      Zr  0.65423958  0.17719888  0.29118238     2.83100
Zr571      Zr  0.82004989  0.24511284  0.20982686     2.83500
Zr572      Zr  0.77869595  0.13012078  0.28235675     2.84100
Zr573      Zr  0.69131737  0.29251997  0.21828315     2.83400
Zr574      Zr  0.76616443  0.25769248  0.33441705     2.84200
O575        O  0.76873671  0.29294767  0.25676214    -1.09200
O576        O  0.72983678  0.17908949  0.32960246    -1.08700
C577        C  0.67369021  0.22557590  0.40970228     1.06000
C578        C  0.89257497  0.28544375  0.30345465     1.08600
C579        C  0.68805055  0.05511246  0.32458113     1.06100
C580        C  0.57479592  0.26625166  0.27018880     1.06500
C581        C  0.78379963  0.36918483  0.18213312     1.06100
C582        C  0.89764724  0.15497589  0.23827000     1.05600
C583        C  0.80394950  0.16232411  0.40723414     1.06000
C584        C  0.71178535  0.37187590  0.31181249     1.05600
H585        H  0.84515978  0.20376153  0.30307915     0.32200
O586        O  0.81421589  0.20757253  0.28700467    -1.30300
H587        H  0.66680794  0.27622694  0.31653638     0.32300
O588        O  0.68821886  0.25679934  0.29651215    -1.31700
C589        C  0.44383635  0.29464628  0.71625607     0.79600
N590        N  0.48450835  0.26757666  0.72460083    -0.78700
C591        C  0.52885385  0.28746212  0.71424272     0.82000
N592        N  0.53223343  0.33166487  0.69423271    -0.78700
C593        C  0.49229612  0.35830958  0.68692717     0.82100
N594        N  0.44792306  0.34038247  0.69869798    -0.80400
C595        C  0.48189009  0.11216471  0.89283761     0.79600
N596        N  0.44036436  0.11939857  0.86769118    -0.78700
C597        C  0.44102726  0.13104547  0.81989733     0.82000
N598        N  0.48581148  0.13572883  0.79657297    -0.78700
C599        C  0.52874476  0.12764963  0.82216152     0.82100
N600        N  0.52563173  0.11654991  0.87022076    -0.80400
C601        C  0.65319253  0.21704561  0.54252581     0.79600
N602        N  0.67594081  0.22909645  0.49988430    -0.78700
C603        C  0.65107470  0.22210353  0.45727385     0.82000
N604        N  0.60482438  0.20479224  0.45799176    -0.78700
C605        C  0.58381657  0.19223785  0.50023225     0.82100
N606        N  0.60817248  0.19769158  0.54188727    -0.80400
C607        C  0.81476276  0.14020541  0.45657216     0.79600
N608        N  0.82310725  0.09139714  0.45738905    -0.78700
C609        C  0.82856699  0.06698852  0.49989199     0.82000
N610        N  0.82545643  0.09156762  0.54273021    -0.78700
C611        C  0.81733148  0.14037115  0.54420128     0.82100
N612        N  0.81111592  0.16495332  0.50053122    -0.80400
O613        O  0.81299554  0.23048349  0.87833753    -0.87100
O614        O  0.58454702  0.14567553  0.75605817    -0.87300
O615        O  0.67295733  0.21594686  0.90356709    -0.89000
O616        O  0.73158727  0.08271054  0.83769736    -0.87700
O617        O  0.77875979  0.06186190  0.77108756    -0.87300
O618        O  0.66638781  0.29226472  0.87007103    -0.88700
O619        O  0.61574260  0.14017467  0.83324974    -0.87200
O620        O  0.75443392  0.17758528  0.90683174    -0.86700
Zr621      Zr  0.70427460  0.16766705  0.83502565     2.84300
O622        O  0.70572402  0.13116080  0.75801555    -1.08700
O623        O  0.73861861  0.24694830  0.82939743    -1.09400
C624        C  0.79156109  0.20595231  0.91229692     1.06000
C625        C  0.57948312  0.13760990  0.80213854     1.05900
C626        C  0.66470275  0.26216028  0.90699006     1.08900
C627        C  0.75738094  0.05279911  0.81172436     1.06700
H628        H  0.62392997  0.22018828  0.80088487     0.32200
O629        O  0.65576789  0.21631318  0.78648369    -1.29700
H630        H  0.80442413  0.15013302  0.81954201     0.31900
O631        O  0.78329673  0.16882502  0.79856600    -1.31300
O632        O  0.65143003  0.19847559  0.62423330    -0.87100
O633        O  0.88631047  0.27710791  0.74596195    -0.88600
O634        O  0.60426424  0.29315894  0.75212468    -0.87200
O635        O  0.73832340  0.06018051  0.69031693    -0.87200
O636        O  0.86841811  0.13476157  0.75003341    -0.87000
O637        O  0.73502567  0.36591387  0.81284067    -0.86800
O638        O  0.73542041  0.34191065  0.66044303    -0.87100
O639        O  0.79708381  0.20834445  0.59719878    -0.86600
O640        O  0.69100168  0.36378005  0.72867801    -0.87700
O641        O  0.80910519  0.13307657  0.63159459    -0.86800
O642        O  0.58260463  0.22367215  0.70977870    -0.87200
O643        O  0.81260379  0.33600639  0.81919881    -0.86900
O644        O  0.88755175  0.20180824  0.79710538    -0.86600
O645        O  0.66041609  0.08967668  0.68789832    -0.87000
O646        O  0.71403138  0.24696678  0.59557214    -0.87300
O647        O  0.85449558  0.28023441  0.66890686    -0.88600
Zr648      Zr  0.65489288  0.17711704  0.71000993     2.83100
Zr649      Zr  0.81532636  0.24909980  0.79276012     2.83500
Zr650      Zr  0.68907751  0.29457649  0.78147723     2.84100
Zr651      Zr  0.78361553  0.13231570  0.72012898     2.83400
Zr652      Zr  0.76536838  0.25711127  0.66594368     2.84200
O653        O  0.81552075  0.21128927  0.71571566    -1.09200
O654        O  0.68783118  0.25651447  0.70425523    -1.08700
C655        C  0.67477726  0.22172542  0.59030124     1.06000
C656        C  0.89096839  0.28337739  0.69960139     1.08600
C657        C  0.57415464  0.26575750  0.72766272     1.06100
C658        C  0.69187190  0.05452281  0.68390035     1.06500
C659        C  0.89743432  0.16092650  0.77700253     1.06100
C660        C  0.78111814  0.37137933  0.82179143     1.05600
C661        C  0.71025334  0.37223382  0.68684392     1.06000
C662        C  0.80834112  0.16264116  0.59408423     1.05600
H663        H  0.78018636  0.32674013  0.73806607     0.32200
O664        O  0.76628138  0.29465796  0.74244284    -1.30300
H665        H  0.72764524  0.16127157  0.64228297     0.32300
O666        O  0.73132274  0.17778595  0.67296476    -1.31700
O667        O  0.14969670  0.22663537  0.12331275    -0.87100
O668        O  0.38987053  0.14973321  0.24198957    -0.87300
O669        O  0.29960047  0.21870652  0.09493339    -0.89000
O670        O  0.24437182  0.08712759  0.15873756    -0.87700
O671        O  0.19892100  0.05770994  0.22292296    -0.87300
O672        O  0.30432333  0.29509490  0.12892875    -0.88700
O673        O  0.35673592  0.14487311  0.16550174    -0.87200
O674        O  0.21377903  0.18086243  0.09487791    -0.86700
Zr675      Zr  0.26812359  0.17164215  0.16385677     2.84300
O676        O  0.27129206  0.13201000  0.23920878    -1.08700
O677        O  0.23046553  0.24850668  0.17071030    -1.09400
C678        C  0.17377423  0.20470772  0.08965856     1.06000
C679        C  0.39360222  0.14157501  0.19587639     1.05900
C680        C  0.30789286  0.26493716  0.09173916     1.08900
C681        C  0.22127138  0.05308483  0.18169832     1.06700
H682        H  0.34777058  0.22571273  0.19757266     0.32200
O683        O  0.31621208  0.22089437  0.21248410    -1.29700
H684        H  0.16972218  0.14597359  0.18056809     0.31900
O685        O  0.19026917  0.16572078  0.20145529    -1.31300
O686        O  0.32445107  0.20366726  0.37280097    -0.87100
O687        O  0.08383368  0.27204993  0.25566412    -0.88600
O688        O  0.36547193  0.30276409  0.24569132    -0.87200
O689        O  0.24196055  0.05833912  0.30957838    -0.87200
O690        O  0.11033105  0.12413996  0.25583500    -0.87000
O691        O  0.23086624  0.36642969  0.18926557    -0.86800
O692        O  0.22838404  0.33757315  0.33913769    -0.87100
O693        O  0.17653115  0.20528788  0.40268222    -0.86600
O694        O  0.27229254  0.36654910  0.27339726    -0.87700
O695        O  0.16891926  0.12920793  0.36840197    -0.86800
O696        O  0.38894463  0.23271514  0.28560111    -0.87200
O697        O  0.15436904  0.33223428  0.18432522    -0.86900
O698        O  0.08418760  0.18927810  0.21032022    -0.86600
O699        O  0.31854403  0.09210756  0.31310268    -0.87000
O700        O  0.25970219  0.24807475  0.40205068    -0.87300
O701        O  0.11703720  0.27398756  0.33209798    -0.88600
Zr702      Zr  0.32001555  0.18011656  0.28805758     2.83100
Zr703      Zr  0.15382614  0.24357792  0.20842497     2.83500
Zr704      Zr  0.28010621  0.29758842  0.21852142     2.84100
Zr705      Zr  0.19469454  0.12696917  0.27877006     2.83400
Zr706      Zr  0.20642616  0.25212984  0.33311530     2.84200
O707        O  0.15762589  0.20358967  0.28433578    -1.09200
O708        O  0.28373665  0.25767032  0.29490478    -1.08700
C709        C  0.30015015  0.22534506  0.40682799     1.06000
C710        C  0.08011611  0.27810311  0.30209703     1.08600
C711        C  0.39654572  0.27538510  0.26835337     1.06100
C712        C  0.28825695  0.05530244  0.31725975     1.06500
C713        C  0.07782396  0.14841717  0.23242049     1.06100
C714        C  0.18438537  0.36954289  0.18187991     1.05600
C715        C  0.24946866  0.37170015  0.31419560     1.06000
C716        C  0.16700110  0.15935447  0.40585077     1.05600
H717        H  0.18699627  0.32142661  0.26308448     0.32200
O718        O  0.20289414  0.29072884  0.25779435    -1.30300
H719        H  0.24945433  0.15933760  0.35717742     0.32300
O720        O  0.24453989  0.17516853  0.32642616    -1.31700
C721        C  0.48402441  0.11020774  0.04873350    -0.06000
C722        C  0.46079025  0.14861274  0.02372515    -0.03100
C723        C  0.45810819  0.14789652  0.97271363     0.01900
C724        C  0.47975510  0.10936400  0.94631028    -0.06000
C725        C  0.50246665  0.07073928  0.97116032    -0.03100
C726        C  0.50463125  0.07112290  0.02247348     0.01900
C727        C  0.44234488  0.19064330  0.05026176     0.36500
C728        C  0.52331469  0.03060426  0.94379017     0.36500
C729        C  0.52805705  0.03143155  0.04800119     0.35000
C730        C  0.43554003  0.18850123  0.94753498     0.35000
N731        N  0.54702787  0.99955622  0.06784772    -0.39900
N732        N  0.41769811  0.22102618  0.92769805    -0.39900
N733        N  0.53992324  0.99877962  0.92166230    -0.39300
N734        N  0.42810130  0.22424742  0.07140367    -0.39300
C735        C  0.49728873  0.51047747  0.68456039    -0.06000
C736        C  0.46853041  0.48590604  0.64984311    -0.03100
C737        C  0.47037984  0.43522660  0.64716809     0.01900
C738        C  0.49875956  0.40994710  0.68120046    -0.06000
C739        C  0.52868992  0.43469986  0.71525926    -0.03100
C740        C  0.52888346  0.48517006  0.71606685     0.01900
C741        C  0.43417771  0.51244792  0.62010977     0.36500
C742        C  0.55501603  0.40909502  0.75353250     0.36500
C743        C  0.55738006  0.51009955  0.75352636     0.35000
C744        C  0.44175709  0.40906921  0.61102810     0.35000
N745        N  0.58010510  0.52891363  0.78378858    -0.39900
N746        N  0.41899358  0.38833822  0.58209485    -0.39900
N747        N  0.57575153  0.38982883  0.78469014    -0.39300
N748        N  0.40569979  0.53417234  0.59817592    -0.39300
C749        C  0.83371463  0.90916972  0.50191810    -0.06000
C750        C  0.79581586  0.93453541  0.52600808    -0.03100
C751        C  0.79394039  0.98588093  0.52447801     0.01900
C752        C  0.83061880  0.01274139  0.49992064    -0.06000
C753        C  0.86764767  0.98754540  0.47443186    -0.03100
C754        C  0.86909264  0.93591966  0.47527748     0.01900
C755        C  0.75675598  0.90762294  0.54980141     0.36500
C756        C  0.90428453  0.01471418  0.44734414     0.36500
C757        C  0.90717597  0.91041586  0.44896143     0.35000
C758        C  0.75210686  0.01095484  0.54503781     0.35000
N759        N  0.93748733  0.89016076  0.42775115    -0.39900
N760        N  0.71853349  0.03115438  0.56060400    -0.39900
N761        N  0.93336066  0.03639384  0.42552626    -0.39300
N762        N  0.72564204  0.88567623  0.56824106    -0.39300
C763        C  0.48806657  0.81203224  0.94638547    -0.06000
C764        C  0.50737289  0.77150132  0.97145813    -0.03100
C765        C  0.50670546  0.77012903  0.02280133     0.01900
C766        C  0.48596450  0.80888624  0.04961464    -0.06000
C767        C  0.46492201  0.84852626  0.02453821    -0.03100
C768        C  0.46755215  0.85088981  0.97309512     0.01900
C769        C  0.52639115  0.73019434  0.94437217     0.36500
C770        C  0.43993172  0.88644760  0.05150378     0.36500
C771        C  0.45115325  0.89412113  0.94772543     0.35000
C772        C  0.52466455  0.72726281  0.04793968     0.35000
N773        N  0.43879508  0.92886689  0.92741527    -0.39900
N774        N  0.53856647  0.69290509  0.06790103    -0.39900
N775        N  0.41927172  0.91634135  0.07288605    -0.39300
N776        N  0.54131225  0.69721060  0.92273844    -0.39300
C777        C  0.48779810  0.51021811  0.29544500    -0.06000
C778        C  0.51613868  0.48339813  0.26230550    -0.03100
C779        C  0.51896128  0.43350196  0.26789688     0.01900
C780        C  0.49556582  0.41140740  0.30827791    -0.06000
C781        C  0.46870028  0.43856872  0.34239365    -0.03100
C782        C  0.46336322  0.48840299  0.33483838     0.01900
C783        C  0.53958283  0.50660091  0.22048260     0.36500
C784        C  0.44570515  0.41511129  0.38397738     0.36500
C785        C  0.43086836  0.51691013  0.36521688     0.35000
C786        C  0.54182588  0.40501329  0.22930136     0.35000
N787        N  0.40393450  0.54067240  0.38723209    -0.39900
N788        N  0.55955679  0.38281019  0.19809854    -0.39900
N789        N  0.42756537  0.39658697  0.41734468    -0.39300
N790        N  0.55829840  0.52521377  0.18746893    -0.39300
C791        C  0.66726789  0.46851709  0.44990945    -0.06000
C792        C  0.70236280  0.49661698  0.47526042    -0.03100
C793        C  0.70131773  0.49758713  0.52564866     0.01900
C794        C  0.66523463  0.47040424  0.55056089    -0.06000
C795        C  0.62969915  0.44305907  0.52550045    -0.03100
C796        C  0.63101633  0.44163154  0.47458573     0.01900
C797        C  0.74264084  0.52097989  0.45018892     0.36500
C798        C  0.59226623  0.41661288  0.55216355     0.36500
C799        C  0.59588544  0.41227295  0.44776184     0.35000
C800        C  0.74031893  0.52319148  0.55142316     0.35000
N801        N  0.56812606  0.38858787  0.42636463    -0.39900
N802        N  0.77157662  0.54346613  0.57144618    -0.39900
N803        N  0.56240141  0.39580795  0.57370189    -0.39300
N804        N  0.77493553  0.54028289  0.43080106    -0.39300
C805        C  0.92867064  0.46701865  0.84811978    -0.06000
C806        C  0.95455295  0.44078444  0.88389791    -0.03100
C807        C  0.00614942  0.43917813  0.88248904     0.01900
C808        C  0.03207707  0.46361591  0.84510825    -0.06000
C809        C  0.00597750  0.48926068  0.80894449    -0.03100
C810        C  0.95464879  0.49108849  0.81053545     0.01900
C811        C  0.92787005  0.41534890  0.92197380     0.36500
C812        C  0.03179576  0.51113900  0.76806642     0.36500
C813        C  0.92843283  0.51461559  0.77120494     0.35000
C814        C  0.03250522  0.41259075  0.91956328     0.35000
N815        N  0.90719833  0.53264806  0.73967782    -0.39900
N816        N  0.05356692  0.39123584  0.94906967    -0.39900
N817        N  0.05257143  0.52805393  0.73537475    -0.39300
N818        N  0.90594510  0.39501305  0.95186462    -0.39300
C819        C  0.43338169  0.65153604  0.50053199    -0.06000
C820        C  0.45810294  0.69615229  0.50727673    -0.03100
C821        C  0.50844650  0.69618389  0.50983799     0.01900
C822        C  0.53323214  0.65174559  0.50477499    -0.06000
C823        C  0.50872187  0.60722217  0.49800224    -0.03100
C824        C  0.45790454  0.60696363  0.49691620     0.01900
C825        C  0.43173486  0.74193143  0.51149484     0.36500
C826        C  0.53567714  0.56246477  0.49128761     0.36500
C827        C  0.43103535  0.56141797  0.49332638     0.35000
C828        C  0.53484065  0.74202865  0.51586319     0.35000
N829        N  0.40970392  0.52491587  0.49121672    -0.39900
N830        N  0.55601427  0.77836938  0.52044909    -0.39900
N831        N  0.55711447  0.52676053  0.48544976    -0.39300
N832        N  0.41068835  0.77823272  0.51495764    -0.39300
C833        C  0.13309313  0.01338928  0.49642089    -0.06000
C834        C  0.09273793  0.98771075  0.51544588    -0.03100
C835        C  0.09342233  0.93645607  0.51639370     0.01900
C836        C  0.13427614  0.91149609  0.49778949    -0.06000
C837        C  0.17457242  0.93745235  0.47857327    -0.03100
C838        C  0.17387621  0.98837897  0.47766690     0.01900
C839        C  0.05050701  0.01410779  0.53311643     0.36500
C840        C  0.21791318  0.91198415  0.46187130     0.36500
C841        C  0.21600629  0.01506712  0.45899857     0.35000
C842        C  0.05233679  0.90948037  0.53632019     0.35000
N843        N  0.24937220  0.03646543  0.44409380    -0.39900
N844        N  0.01961045  0.88798755  0.55241666    -0.39900
N845        N  0.25262978  0.89200118  0.44873118    -0.39300
N846        N  0.01689589  0.03546545  0.54693503    -0.39300
C847        C  0.53210989  0.18375243  0.50270464    -0.06000
C848        C  0.50432556  0.21596667  0.53147533    -0.03100
C849        C  0.45406823  0.21154445  0.53166748     0.01900
C850        C  0.43177216  0.17420846  0.50390684    -0.06000
C851        C  0.45933647  0.14118499  0.47612761    -0.03100
C852        C  0.51016675  0.14599223  0.47549276     0.01900
C853        C  0.52689709  0.25548880  0.55913738     0.36500
C854        C  0.43531855  0.10326710  0.44785776     0.36500
C855        C  0.53971733  0.11227732  0.44743546     0.35000
C856        C  0.42547126  0.24818283  0.55740265     0.35000
N857        N  0.56324323  0.08525876  0.42519343    -0.39900
N858        N  0.40282273  0.27733490  0.57775447    -0.39900
N859        N  0.41607104  0.07301786  0.42541917    -0.39300
N860        N  0.54457690  0.28660745  0.58164250    -0.39300
C861        C  0.03433512  0.45949524  0.15801292    -0.06000
C862        C  0.01044100  0.48151247  0.11828682    -0.03100
C863        C  0.95908718  0.48169484  0.11635305     0.01900
C864        C  0.93179743  0.46045264  0.15448467    -0.06000
C865        C  0.95582711  0.43849443  0.19430711    -0.03100
C866        C  0.00698655  0.43769169  0.19588968     0.01900
C867        C  0.03881021  0.50326790  0.07916259     0.36500
C868        C  0.92794557  0.41852878  0.23485839     0.36500
C869        C  0.03125401  0.41627652  0.23769633     0.35000
C870        C  0.93432374  0.50261539  0.07474462     0.35000
N871        N  0.05014561  0.39921794  0.27123460    -0.39900
N872        N  0.91444219  0.51907756  0.04148895    -0.39900
N873        N  0.90555658  0.40280839  0.26708771    -0.39300
N874        N  0.06173541  0.52059750  0.04815437    -0.39300
C875        C  0.19185510  0.47323326  0.44317630    -0.06000
C876        C  0.15960830  0.44339102  0.46984707    -0.03100
C877        C  0.16345260  0.44201735  0.52075427     0.01900
C878        C  0.20085849  0.46897099  0.54366070    -0.06000
C879        C  0.23154788  0.50062725  0.51685070    -0.03100
C880        C  0.22563860  0.50437959  0.46689729     0.01900
C881        C  0.12321856  0.41408190  0.44474789     0.36500
C882        C  0.27200873  0.52678835  0.53964733     0.36500
C883        C  0.25766275  0.53763504  0.44022379     0.35000
C884        C  0.12926429  0.41327148  0.54932847     0.35000
N885        N  0.28330665  0.56439460  0.41979318    -0.39900
N886        N  0.10160131  0.39065837  0.57200215    -0.39900
N887        N  0.30422132  0.54775382  0.55729220    -0.39300
N888        N  0.09421040  0.39090007  0.42448398    -0.39300
C889        C  0.97821675  0.91040277  0.28768316    -0.06000
C890        C  0.94601863  0.93310814  0.25464247    -0.03100
C891        C  0.94707287  0.98332355  0.24985289     0.01900
C892        C  0.98034399  0.01085147  0.27799160    -0.06000
C893        C  0.01115058  0.98864758  0.31239288    -0.03100
C894        C  0.01014620  0.93786705  0.31718608     0.01900
C895        C  0.91606381  0.90504766  0.22069233     0.36500
C896        C  0.04499686  0.01766983  0.34117681     0.36500
C897        C  0.04374213  0.91374605  0.35001661     0.35000
C898        C  0.91747971  0.00566964  0.21188908     0.35000
N899        N  0.07084975  0.89462878  0.37592020    -0.39900
N900        N  0.89413328  0.02309960  0.18150888    -0.39900
N901        N  0.07226611  0.04066855  0.36390812    -0.39300
N902        N  0.89255407  0.88318587  0.19320569    -0.39300
C903        C  0.98318675  0.62287232  0.55358151    -0.06000
C904        C  0.01006043  0.65795408  0.52668980    -0.03100
C905        C  0.00849902  0.65790358  0.47538962     0.01900
C906        C  0.98164583  0.62169002  0.45021783    -0.06000
C907        C  0.95178612  0.58902005  0.47693646    -0.03100
C908        C  0.95250239  0.58964560  0.52842281     0.01900
C909        C  0.03562438  0.69715197  0.55164622     0.36500
C910        C  0.91884894  0.55596299  0.45175617     0.36500
C911        C  0.92062267  0.55682663  0.55531782     0.35000
C912        C  0.02971225  0.69855998  0.44862745     0.35000
N913        N  0.89452864  0.53128621  0.57670764    -0.39900
N914        N  0.04525193  0.73135873  0.42696090    -0.39900
N915        N  0.89175404  0.53009421  0.43210256    -0.39300
N916        N  0.05531887  0.72881660  0.57156670    -0.39300
C917        C  0.98659195  0.30688095  0.55270264    -0.06000
C918        C  0.96921092  0.34764360  0.52712283    -0.03100
C919        C  0.97082732  0.34797735  0.47586020     0.01900
C920        C  0.98910345  0.30715768  0.45053369    -0.06000
C921        C  0.00719648  0.26660500  0.47641419    -0.03100
C922        C  0.00551784  0.26632322  0.52746924     0.01900
C923        C  0.95060375  0.38928926  0.55381440     0.36500
C924        C  0.02694294  0.22473334  0.45071472     0.36500
C925        C  0.02160540  0.22351710  0.55408433     0.35000
C926        C  0.95607343  0.39104499  0.44926453     0.35000
N927        N  0.03413872  0.18955057  0.57558304    -0.39900
N928        N  0.94495975  0.42560495  0.42796032    -0.39900
N929        N  0.04306080  0.19140289  0.43052504    -0.39300
N930        N  0.93584204  0.42208100  0.57583122    -0.39300
C931        C  0.97715529  0.91452628  0.82140354    -0.06000
C932        C  0.94342124  0.93930127  0.79148189    -0.03100
C933        C  0.94246623  0.98975962  0.79193277     0.01900
C934        C  0.97512930  0.01550806  0.82235200    -0.06000
C935        C  0.00698826  0.99106544  0.85406069    -0.03100
C936        C  0.00820777  0.94010784  0.85346782     0.01900
C937        C  0.91264529  0.91394976  0.75619496     0.36500
C938        C  0.03774525  0.01844159  0.88749613     0.36500
C939        C  0.04167731  0.91428791  0.88507208     0.35000
C940        C  0.91099036  0.01439932  0.75709058     0.35000
N941        N  0.06861476  0.89399638  0.91024235    -0.39900
N942        N  0.88582477  0.03275617  0.72879619    -0.39900
N943        N  0.06190876  0.04048704  0.91427111    -0.39300
N944        N  0.88787176  0.89513185  0.72760238    -0.39300
C945        C  0.43910270  0.96303195  0.66361887    -0.06000
C946        C  0.46542608  0.98730034  0.70073367    -0.03100
C947        C  0.51680474  0.98708446  0.70023056     0.01900
C948        C  0.54214489  0.96178004  0.66310096    -0.06000
C949        C  0.51569150  0.93498200  0.62790453    -0.03100
C950        C  0.46435048  0.93628982  0.62767494     0.01900
C951        C  0.43956876  0.00919034  0.74143820     0.36500
C952        C  0.54118988  0.90547341  0.59228991     0.36500
C953        C  0.43744484  0.91012428  0.59034998     0.35000
C954        C  0.54354351  0.00973293  0.73997972     0.35000
N955        N  0.41571360  0.88911229  0.56085663    -0.39900
N956        N  0.56539232  0.02706426  0.77169211    -0.39900
N957        N  0.56171383  0.88130418  0.56452170    -0.39300
N958        N  0.41836645  0.02570084  0.77397626    -0.39300
C959        C  0.30813032  0.96445344  0.94668343    -0.06000
C960        C  0.31266094  0.92030673  0.97244661    -0.03100
C961        C  0.30379787  0.91990080  0.02285235     0.01900
C962        C  0.29137168  0.96407798  0.04682347    -0.06000
C963        C  0.30390092  0.00862350  0.02325279    -0.03100
C964        C  0.31359812  0.00836737  0.97291257     0.01900
C965        C  0.32438986  0.87527926  0.94729356     0.36500
C966        C  0.30648502  0.05460021  0.04946414     0.36500
C967        C  0.32845046  0.05285097  0.94821943     0.35000
C968        C  0.30716771  0.87398951  0.04880674     0.35000
N969        N  0.34095403  0.08838975  0.92907678    -0.39900
N970        N  0.31049850  0.83701275  0.06875960    -0.39900
N971        N  0.30889375  0.09160933  0.06970165    -0.39300
N972        N  0.33386758  0.83918491  0.92763004    -0.39300
C973        C  0.53950138  0.96484850  0.35347575    -0.06000
C974        C  0.51484320  0.99200274  0.31738624    -0.03100
C975        C  0.46362346  0.99176012  0.31563168     0.01900
C976        C  0.43639279  0.96520201  0.35052114    -0.06000
C977        C  0.46085285  0.93836808  0.38679093    -0.03100
C978        C  0.51234542  0.93803162  0.38815364     0.01900
C979        C  0.54205529  0.01823436  0.28015303     0.36500
C980        C  0.43286414  0.91140545  0.42275846     0.36500
C981        C  0.53739502  0.91063395  0.42551249     0.35000
C982        C  0.43911142  0.01621184  0.27571855     0.35000
N983        N  0.55761870  0.88869445  0.45515058    -0.39900
N984        N  0.41929557  0.03516735  0.24380548    -0.39900
N985        N  0.40984529  0.88991799  0.45095430    -0.39300
N986        N  0.56388312  0.03900359  0.25052182    -0.39300
C987        C  0.80203790  0.95469398  0.05046651    -0.06000
C988        C  0.84543323  0.96325964  0.02462903    -0.03100
C989        C  0.84341466  0.96598727  0.97394991     0.01900
C990        C  0.79829206  0.95954994  0.95078142    -0.06000
C991        C  0.75524268  0.94880258  0.97664585    -0.03100
C992        C  0.75715290  0.94618893  0.02691871     0.01900
C993        C  0.89149827  0.96886521  0.05000624     0.36500
C994        C  0.70902723  0.94113149  0.95148688     0.36500
C995        C  0.71283204  0.93586358  0.05451407     0.35000
C996        C  0.88702994  0.97575644  0.94577011     0.35000
N997        N  0.67784216  0.92748996  0.07675357    -0.39900
N998        N  0.92183160  0.98381205  0.92329794    -0.39900
N999        N  0.67257705  0.93489931  0.93108725    -0.39300
N1000       N  0.92841613  0.97282521  0.07008047    -0.39300
C1001       C  0.64760601  0.41214182  0.00031493    -0.06000
C1002       C  0.68415520  0.43837968  0.02577748    -0.03100
C1003       C  0.68439933  0.48978752  0.02529002     0.01900
C1004       C  0.64743041  0.51539018  0.00035680    -0.06000
C1005       C  0.61221663  0.48917413  0.97328712    -0.03100
C1006       C  0.61283193  0.43778483  0.97254330     0.01900
C1007       C  0.72375553  0.41255155  0.04927515     0.36500
C1008       C  0.57526988  0.51512321  0.94610049     0.36500
C1009       C  0.57822978  0.41143614  0.94230582     0.35000
C1010       C  0.72488846  0.51627965  0.04709935     0.35000
N1011       N  0.55132548  0.39043405  0.91738318    -0.39900
N1012       N  0.75742558  0.53771306  0.06356902    -0.39900
N1013       N  0.54617368  0.53617057  0.92422350    -0.39300
N1014       N  0.75553205  0.39175499  0.06737539    -0.39300
C1015       C  0.93710752  0.24835368  0.99147208    -0.06000
C1016       C  0.96275752  0.21648160  0.96036068    -0.03100
C1017       C  0.01323741  0.21811657  0.95969883     0.01900
C1018       C  0.03804589  0.25123875  0.99080036    -0.06000
C1019       C  0.01249241  0.28514899  0.01946411    -0.03100
C1020       C  0.96143988  0.28376686  0.01972249     0.01900
C1021       C  0.93789786  0.17843846  0.93242904     0.36500
C1022       C  0.03871419  0.32057211  0.04896682     0.36500
C1023       C  0.93405281  0.31777323  0.04952205     0.35000
C1024       C  0.03889626  0.18238799  0.92985248     0.35000
N1025       N  0.91226563  0.34501414  0.07322013    -0.39900
N1026       N  0.05863021  0.15389650  0.90581994    -0.39900
N1027       N  0.05975439  0.34886671  0.07232807    -0.39300
N1028       N  0.91864977  0.14789701  0.91038294    -0.39300
C1029       C  0.34172964  0.51479952  0.00160525    -0.06000
C1030       C  0.37629706  0.48992198  0.97266647    -0.03100
C1031       C  0.37766577  0.43853805  0.97314385     0.01900
C1032       C  0.34374011  0.41213461  0.00168563    -0.06000
C1033       C  0.30788412  0.43709197  0.02890581    -0.03100
C1034       C  0.30763181  0.48810949  0.02983780     0.01900
C1035       C  0.40976353  0.51715555  0.94187625     0.36500
C1036       C  0.26814975  0.41053809  0.05234594     0.36500
C1037       C  0.26973759  0.51274769  0.05742044     0.35000
C1038       C  0.41297220  0.41277630  0.94341510     0.35000
N1039       N  0.23938133  0.53198454  0.07946037    -0.39900
N1040       N  0.44057756  0.39180746  0.91940736    -0.39900
N1041       N  0.23617393  0.38942138  0.07033146    -0.39300
N1042       N  0.43582277  0.53920773  0.91690769    -0.39300
C1043       C  0.93547424  0.77548577  0.99134899    -0.06000
C1044       C  0.96072261  0.80794308  0.02208167    -0.03100
C1045       C  0.01150786  0.80881178  0.02086155     0.01900
C1046       C  0.03608391  0.77639710  0.98965707    -0.06000
C1047       C  0.01063864  0.74401976  0.95853880    -0.03100
C1048       C  0.96017382  0.74390868  0.95903653     0.01900
C1049       C  0.93467502  0.83758974  0.05728467     0.36500
C1050       C  0.03548121  0.70614824  0.93069563     0.36500
C1051       C  0.93449654  0.70682077  0.93057060     0.35000
C1052       C  0.03832663  0.84044769  0.05397680     0.35000
N1053       N  0.91490015  0.67679773  0.90811600    -0.39900
N1054       N  0.05953407  0.86512437  0.08097011    -0.39900
N1055       N  0.05414855  0.67523507  0.90890748    -0.39300
N1056       N  0.91378429  0.86016356  0.08611270    -0.39300
loop_ 
_geom_bond_atom_site_label_1 
_geom_bond_atom_site_label_2 
_geom_bond_distance 
_geom_bond_site_symmetry_2 
_ccdc_geom_bond_type 
C1            N2   1.336       .  A
C1            N6   1.357   1_556  A
C1          C312   1.428       .  S
N2            C3   1.337       .  A
C3            N4   1.344   1_556  A
C3         C1046   1.433       .  S
N4            C5   1.344       .  A
C5            N6   1.361       .  A
C5          C168   1.432       .  S
C7            N8   1.351       .  A
C7           N12   1.388   1_554  A
C7          C171   1.515       .  S
N8            C9   1.352   1_554  A
C9           N10   1.353       .  A
C9         C1029   1.475   1_556  S
N10          C11   1.355       .  A
C11          N12   1.390       .  A
C11         C314   1.514       .  S
C13          N14   1.352       .  A
C13          N18   1.367       .  A
C13         C546   1.443       .  S
N14          C15   1.339   1_554  A
C15          N16   1.332       .  A
C15        C1015   1.440       .  S
N16          C17   1.343       .  A
C17          N18   1.361   1_556  A
C17         C624   1.447       .  S
C19          N20   1.385   1_556  A
C19          N24   1.356       .  A
C19         C626   1.508       .  S
N20          C21   1.385       .  A
C21          N22   1.358       .  A
C21         C549   1.511       .  S
N22          C23   1.354       .  A
C23          N24   1.352   1_554  A
C23        C1001   1.484       .  S
C25          N26   1.361       .  A
C25          N30   1.340       .  A
C25         C390   1.436       .  S
N26          C27   1.363   1_565  A
C27          N28   1.345       .  A
C27         C548   1.445       .  S
N28          C29   1.345   1_545  A
C29          N30   1.339       .  A
C29         C987   1.423       .  S
C31          N32   1.352       .  A
C31          N36   1.386   1_545  A
C31         C579   1.508       .  S
N32          C33   1.350   1_545  A
C33          N34   1.354       .  A
C33         C973   1.481       .  S
N34          C35   1.359       .  A
C35          N36   1.387       .  A
C35         C392   1.514       .  S
C37          N38   1.365   1_545  A
C37          N42   1.356       .  A
C37         C234   1.458       .  S
N38          C39   1.363       .  A
C39          N40   1.356       .  A
C39         C315   1.464       .  S
N40          C41   1.345       .  A
C41          N42   1.345   1_565  A
C41         C959   1.486       .  S
C43          N44   1.354       .  A
C43          N48   1.384       .  A
C43         C346   1.503       .  S
N44          C45   1.352       .  A
C45          N46   1.354   1_565  A
C45         C945   1.478       .  S
N46          C47   1.357       .  A
C47          N48   1.382   1_545  A
C47         C237   1.508       .  S
C49          N50   1.363       .  A
C49          N54   1.346       .  A
C49         C425   1.439       .  S
N50          C51   1.359   1_554  A
C51          N52   1.333       .  A
C51         C480   1.429       .  S
N52          C53   1.336       .  A
C53          N54   1.345   1_556  A
C53        C1043   1.433       .  S
C55          N56   1.357       .  A
C55          N60   1.386       .  A
C55         C422   1.510       .  S
N56          C57   1.351       .  A
C57          N58   1.351   1_554  A
C57        C1004   1.484       .  S
N58          C59   1.357       .  A
C59          N60   1.386   1_556  A
C59         C483   1.509       .  S
C61          N62   1.358   1_556  A
C61          N66   1.340       .  A
C61         C270   1.434       .  S
N62          C63   1.362       .  A
C63          N64   1.356       .  A
C63         C678   1.440       .  S
N64          C65   1.340   1_554  A
C65          N66   1.327       .  A
C65        C1018   1.444       .  S
C67          N68   1.393       .  A
C67          N72   1.352       .  A
C67         C266   1.517       .  S
N68          C69   1.390   1_556  A
C69          N70   1.350       .  A
C69         C680   1.521       .  S
N70          C71   1.354   1_554  A
C71          N72   1.353       .  A
C71        C1032   1.471   1_556  S
C73          N74   1.337       .  A
C73          N78   1.362       .  A
C73         C482   1.432       .  S
N74          C75   1.337       .  A
C75          N76   1.342   1_565  A
C75         C990   1.420       .  S
N76          C77   1.344       .  A
C77          N78   1.363   1_545  A
C77         C627   1.438       .  S
C79          N80   1.383   1_545  A
C79          N84   1.356       .  A
C79         C658   1.504       .  S
N80          C81   1.385       .  A
C81          N82   1.356       .  A
C81         C513   1.499       .  S
N82          C83   1.348       .  A
C83          N84   1.349   1_565  A
C83         C948   1.481       .  S
C85          N86   1.355       .  A
C85          N90   1.364   1_545  A
C85         C681   1.458       .  S
N86          C87   1.342   1_545  A
C87          N88   1.344       .  A
C87         C962   1.493       .  S
N88          C89   1.356       .  A
C89          N90   1.364       .  A
C89         C170   1.460       .  S
C91          N92   1.357       .  A
C91          N96   1.384       .  A
C91         C201   1.505       .  S
N92          C93   1.354       .  A
C93          N94   1.353   1_565  A
C93         C976   1.480       .  S
N94          C95   1.353       .  A
C95          N96   1.382   1_545  A
C95         C712   1.507       .  S
C97          N98   1.339       .  A
C97         N102   1.359       .  A
C97         C659   1.440       .  S
N98          C99   1.341       .  A
C99         N100   1.345   1_655  A
C99         C934   1.440       .  S
N100        C101   1.345       .  A
C101        N102   1.364   1_455  A
C101        C236   1.440       .  S
C103        N104   1.391       .  A
C103        N108   1.354       .  A
C103        C656   1.513       .  S
N104        C105   1.390   1_655  A
C105        N106   1.349       .  A
C105        C267   1.509       .  S
N106        C107   1.347   1_455  A
C107        N108   1.350       .  A
C107        C917   1.462       .  S
C109        N110   1.350       .  A
C109        N114   1.366   1_455  A
C109        C347   1.451       .  S
N110        C111   1.349   1_455  A
C111        N112   1.341       .  A
C111        C931   1.445       .  S
N112        C113   1.337       .  A
C113        N114   1.362       .  A
C113        C516   1.445       .  S
C115        N116   1.386       .  A
C115        N120   1.356       .  A
C115        C512   1.506       .  S
N116        C117   1.385   1_655  A
C117        N118   1.358       .  A
C117        C344   1.510       .  S
N118        C119   1.353   1_455  A
C119        N120   1.350       .  A
C119        C903   1.488       .  S
C121        N122   1.350       .  A
C121        N126   1.364   1_455  A
C121        C204   1.438       .  S
N122        C123   1.336   1_455  A
C123        N124   1.333       .  A
C123        C889   1.441       .  S
N124        C125   1.346       .  A
C125        N126   1.360       .  A
C125        C393   1.445       .  S
C127        N128   1.383   1_455  A
C127        N132   1.359       .  A
C127        C200   1.513       .  S
N128        C129   1.384       .  A
C129        N130   1.356       .  A
C129        C424   1.504       .  S
N130        C131   1.351       .  A
C131        N132   1.357   1_655  A
C131        C906   1.486       .  S
C133        N134   1.341       .  A
C133        N138   1.361       .  A
C133        C582   1.443       .  S
N134        C135   1.329       .  A
C135        N136   1.336   1_655  A
C135        C892   1.441       .  S
N136        C137   1.353       .  A
C137        N138   1.366   1_455  A
C137        C713   1.441       .  S
C139        N140   1.351       .  A
C139        N144   1.389   1_455  A
C139        C710   1.515       .  S
N140        C141   1.350   1_455  A
C141        N142   1.353       .  A
C141        C920   1.468       .  S
N142        C143   1.356       .  A
C143        N144   1.391       .  A
C143        C578   1.518       .  S
C145        N146   1.343       .  A
C145        N150   1.363       .  A
C145        C206   1.449       .  S
N146        C147   1.330       .  A
C147        N148   1.341       .  A
C147        C875   1.444       .  S
N148        C149   1.354       .  A
C149        N150   1.368       .  A
C149        C715   1.450       .  S
C151        N152   1.351       .  A
C151        N156   1.351       .  A
C151        C861   1.469       .  S
N152        C153   1.354       .  A
C153        N154   1.390       .  A
C153        C203   1.513       .  S
N154        C155   1.388       .  A
C155        N156   1.353       .  A
C155        C714   1.513       .  S
O157       Zr193   2.447       .  S
O157        C168   1.296       .  A
O158       Zr192   2.466       .  S
O158        C169   1.294       .  A
O159       Zr165   2.411       .  S
O159        C170   1.289       .  A
O160       Zr165   2.452       .  S
O160        C171   1.290       .  A
O161       Zr195   2.526       .  S
O161        C171   1.311       .  A
O162       Zr194   2.444       .  S
O162        C170   1.292       .  A
O163       Zr165   2.504       .  S
O163        C169   1.307       .  A
O164       Zr165   2.380       .  S
O164        C168   1.280       .  A
Zr165       O166   2.301       .  S
Zr165       O167   2.355       .  S
Zr165       O175   2.362       .  S
Zr165       O173   2.336       .  S
O166       Zr192   2.367       .  S
O166       Zr195   2.329       .  S
O167       Zr193   2.366       .  S
O167       Zr194   2.362       .  S
C169        C377   1.515       .  S
H172        O173   0.964       .  S
O173       Zr192   2.316       .  S
O173       Zr194   2.360       .  S
H174        O175   0.965       .  S
O175       Zr193   2.348       .  S
O175       Zr195   2.315       .  S
O176       Zr192   2.466       .  S
O176        C199   1.300       .  A
O177       Zr193   2.475       .  S
O177        C200   1.295       .  A
O178       Zr194   2.442       .  S
O178        C201   1.290       .  A
O179       Zr195   2.435       .  S
O179        C202   1.294       .  A
O180       Zr195   2.443       .  S
O180        C203   1.289       .  A
O181       Zr194   2.407       .  S
O181        C204   1.291       .  A
O182       Zr196   2.450       .  S
O182        C205   1.289       .  A
O183       Zr196   2.414       .  S
O183        C206   1.291       .  A
O184       Zr194   2.550       .  S
O184        C205   1.317       .  A
O185       Zr195   2.409       .  S
O185        C206   1.284       .  A
O186       Zr192   2.519       .  S
O186        C201   1.310       .  A
O187       Zr193   2.412       .  S
O187        C204   1.286       .  A
O188       Zr193   2.530       .  S
O188        C203   1.313       .  A
O189       Zr192   2.389       .  S
O189        C202   1.282       .  A
O190       Zr196   2.382       .  S
O190        C199   1.281       .  A
O191       Zr196   2.503       .  S
O191        C200   1.306       .  A
Zr192       O198   2.332       .  S
Zr192       O210   2.377       .  S
Zr193       O197   2.303       .  S
Zr193       O208   2.374       .  S
Zr194       O198   2.308       .  S
Zr194       O208   2.342       .  S
Zr195       O197   2.365       .  S
Zr195       O210   2.383       .  S
Zr196       O197   2.326       .  S
Zr196       O198   2.356       .  S
Zr196       O210   2.372       .  S
Zr196       O208   2.302       .  S
C199        C277   1.444       .  S
C202        C369   1.434       .  S
C205        C287   1.525       .  S
H207        O208   0.963       .  S
H209        O210   0.966       .  S
C211        N212   1.366       .  A
C211        N216   1.347       .  A
C211        C709   1.437       .  S
N212        C213   1.362       .  A
C213        N214   1.347       .  A
C213        C268   1.449       .  S
N214        C215   1.334       .  A
C215        N216   1.334       .  A
C215        C850   1.434       .  S
C217        N218   1.347       .  A
C217        N222   1.392       .  A
C217        C716   1.518       .  S
N218        C219   1.349       .  A
C219        N220   1.352       .  A
C219        C833   1.457       .  S
N220        C221   1.352       .  A
C221        N222   1.394       .  A
C221        C235   1.520       .  S
O223       Zr259   2.409       .  S
O223        C234   1.290       .  A
O224       Zr258   2.429       .  S
O224        C235   1.287       .  A
O225       Zr231   2.465       .  S
O225        C236   1.300       .  A
O226       Zr231   2.469       .  S
O226        C237   1.295       .  A
O227       Zr261   2.502       .  S
O227        C237   1.306       .  A
O228       Zr260   2.379       .  S
O228        C236   1.280       .  A
O229       Zr231   2.563       .  S
O229        C235   1.320       .  A
O230       Zr231   2.450       .  S
O230        C234   1.294       .  A
Zr231       O232   2.313       .  S
Zr231       O233   2.375       .  S
Zr231       O241   2.374       .  S
Zr231       O239   2.342       .  S
O232       Zr258   2.356       .  S
O232       Zr261   2.326       .  S
O233       Zr259   2.370       .  S
O233       Zr260   2.360       .  S
H238        O239   0.964       .  S
O239       Zr258   2.312       .  S
O239       Zr260   2.356       .  S
H240        O241   0.965       .  S
O241       Zr259   2.323       .  S
O241       Zr261   2.298       .  S
O242       Zr258   2.416       .  S
O242        C265   1.292       .  A
O243       Zr259   2.432       .  S
O243        C266   1.287       .  A
O244       Zr260   2.439       .  S
O244        C267   1.287       .  A
O245       Zr261   2.401       .  S
O245        C268   1.288       .  A
O246       Zr261   2.442       .  S
O246        C269   1.288       .  A
O247       Zr260   2.402       .  S
O247        C270   1.289       .  A
O248       Zr262   2.488       .  S
O248        C271   1.299       .  A
O249       Zr262   2.453       .  S
O249        C272   1.297       .  A
O250       Zr260   2.497       .  S
O250        C271   1.304       .  A
O251       Zr261   2.391       .  S
O251        C272   1.283       .  A
O252       Zr258   2.528       .  S
O252        C267   1.312       .  A
O253       Zr259   2.394       .  S
O253        C270   1.280       .  A
O254       Zr259   2.513       .  S
O254        C269   1.308       .  A
O255       Zr258   2.422       .  S
O255        C268   1.286       .  A
O256       Zr262   2.427       .  S
O256        C265   1.290       .  A
O257       Zr262   2.564       .  S
O257        C266   1.319       .  A
Zr258       O264   2.331       .  S
Zr258       O276   2.378       .  S
Zr259       O263   2.307       .  S
Zr259       O274   2.363       .  S
Zr260       O264   2.302       .  S
Zr260       O274   2.329       .  S
Zr261       O263   2.357       .  S
Zr261       O276   2.371       .  S
Zr262       O263   2.348       .  S
Zr262       O264   2.370       .  S
Zr262       O276   2.391       .  S
Zr262       O274   2.303       .  S
C265        C291   1.452       .  S
C269        C597   1.510       .  S
C271        C295   1.521       .  S
C272        C589   1.442       .  S
H273        O274   0.963       .  S
H275        O276   0.965       .  S
C277        N278   1.344       .  A
C277        N282   1.365       .  A
N278        C279   1.343       .  A
C279        N280   1.339       .  A
C279        C819   1.420       .  S
N280        C281   1.339       .  A
C281        N282   1.364       .  A
C281        C343   1.441       .  S
C283        N284   1.354       .  A
C283        N288   1.396       .  A
C283        C350   1.525       .  S
N284        C285   1.352       .  A
C285        N286   1.350       .  A
C285        C836   1.461       .  S
N286        C287   1.349       .  A
C287        N288   1.394       .  A
C289        N290   1.363       .  A
C289        N294   1.340       .  A
C289        C349   1.449       .  S
N290        C291   1.368       .  A
C291        N292   1.355       .  A
N292        C293   1.342       .  A
C293        N294   1.333       .  A
C293        C878   1.445       .  S
C295        N296   1.364       .  A
C295        N300   1.385       .  A
N296        C297   1.359       .  A
C297        N298   1.354       .  A
C297        C808   1.488       .  S
N298        C299   1.354       .  A
C299        N300   1.385       .  A
C299        C348   1.510       .  S
O301       Zr337   2.447       .  S
O301        C312   1.296       .  A
O302       Zr336   2.481       .  S
O302        C313   1.297       .  A
O303       Zr309   2.442       .  S
O303        C314   1.288       .  A
O304       Zr309   2.402       .  S
O304        C315   1.287       .  A
O305       Zr339   2.458       .  S
O305        C315   1.294       .  A
O306       Zr338   2.529       .  S
O306        C314   1.311       .  A
O307       Zr309   2.483       .  S
O307        C313   1.301       .  A
O308       Zr309   2.369       .  S
O308        C312   1.277       .  A
Zr309       O310   2.327       .  S
Zr309       O311   2.353       .  S
Zr309       O319   2.372       .  S
Zr309       O317   2.305       .  S
O310       Zr336   2.310       .  S
O310       Zr339   2.365       .  S
O311       Zr337   2.340       .  S
O311       Zr338   2.316       .  S
C313        C455   1.509       .  S
H316        O317   0.966       .  S
O317       Zr336   2.371       .  S
O317       Zr338   2.339       .  S
H318        O319   0.965       .  S
O319       Zr337   2.374       .  S
O319       Zr339   2.379       .  S
O320       Zr336   2.475       .  S
O320        C343   1.302       .  A
O321       Zr337   2.469       .  S
O321        C344   1.294       .  A
O322       Zr338   2.458       .  S
O322        C345   1.298       .  A
O323       Zr339   2.442       .  S
O323        C346   1.290       .  A
O324       Zr339   2.464       .  S
O324        C347   1.299       .  A
O325       Zr338   2.454       .  S
O325        C348   1.292       .  A
O326       Zr340   2.432       .  S
O326        C349   1.295       .  A
O327       Zr340   2.453       .  S
O327        C350   1.290       .  A
O328       Zr338   2.412       .  S
O328        C349   1.285       .  A
O329       Zr339   2.558       .  S
O329        C350   1.318       .  A
O330       Zr336   2.390       .  S
O330        C345   1.283       .  A
O331       Zr337   2.524       .  S
O331        C348   1.312       .  A
O332       Zr337   2.401       .  S
O332        C347   1.285       .  A
O333       Zr336   2.509       .  S
O333        C346   1.309       .  A
O334       Zr340   2.374       .  S
O334        C343   1.278       .  A
O335       Zr340   2.489       .  S
O335        C344   1.304       .  A
Zr336       O342   2.359       .  S
Zr336       O354   2.331       .  S
Zr337       O341   2.365       .  S
Zr337       O352   2.306       .  S
Zr338       O342   2.372       .  S
Zr338       O352   2.374       .  S
Zr339       O341   2.340       .  S
Zr339       O354   2.327       .  S
Zr340       O341   2.308       .  S
Zr340       O342   2.358       .  S
Zr340       O354   2.357       .  S
Zr340       O352   2.327       .  S
C345        C449   1.440       .  S
H351        O352   0.963       .  S
H353        O354   0.965       .  S
C355        N356   1.348       .  A
C355        N360   1.364       .  A
C355        C584   1.444       .  S
N356        C357   1.346       .  A
C357        N358   1.340       .  A
C357        C791   1.437       .  S
N358        C359   1.337       .  A
C359        N360   1.361       .  A
C359        C421   1.438       .  S
C361        N362   1.358       .  A
C361        N366   1.391       .  A
C361        C428   1.517       .  S
N362        C363   1.353       .  A
C363        N364   1.348       .  A
C363        C864   1.472       .  S
N364        C365   1.351       .  A
C365        N366   1.389       .  A
C365        C581   1.515       .  S
C367        N368   1.361       .  A
C367        N372   1.332       .  A
C367        C427   1.426       .  S
N368        C369   1.364       .  A
C369        N370   1.344       .  A
N370        C371   1.339       .  A
C371        N372   1.333       .  A
C371        C777   1.421       .  S
C373        N374   1.356       .  A
C373        N378   1.353       .  A
C373        C766   1.485       .  S
N374        C375   1.359       .  A
C375        N376   1.387       .  A
C375        C426   1.520       .  S
N376        C377   1.388       .  A
C377        N378   1.359       .  A
O379       Zr415   2.455       .  S
O379        C390   1.298       .  A
O380       Zr414   2.487       .  S
O380        C391   1.298       .  A
O381       Zr387   2.456       .  S
O381        C392   1.292       .  A
O382       Zr387   2.395       .  S
O382        C393   1.287       .  A
O383       Zr417   2.421       .  S
O383        C393   1.286       .  A
O384       Zr416   2.510       .  S
O384        C392   1.307       .  A
O385       Zr387   2.498       .  S
O385        C391   1.305       .  A
O386       Zr387   2.381       .  S
O386        C390   1.280       .  A
Zr387       O388   2.330       .  S
Zr387       O389   2.352       .  S
Zr387       O397   2.376       .  S
Zr387       O395   2.297       .  S
O388       Zr414   2.301       .  S
O388       Zr417   2.363       .  S
O389       Zr415   2.342       .  S
O389       Zr416   2.308       .  S
C391        C443   1.516       .  S
H394        O395   0.961       .  S
O395       Zr414   2.372       .  S
O395       Zr416   2.328       .  S
H396        O397   0.965       .  S
O397       Zr415   2.375       .  S
O397       Zr417   2.378       .  S
O398       Zr414   2.473       .  S
O398        C421   1.302       .  A
O399       Zr415   2.474       .  S
O399        C422   1.295       .  A
O400       Zr416   2.476       .  S
O400        C423   1.302       .  A
O401       Zr417   2.453       .  S
O401        C424   1.292       .  A
O402       Zr417   2.449       .  S
O402        C425   1.296       .  A
O403       Zr416   2.477       .  S
O403        C426   1.296       .  A
O404       Zr418   2.461       .  S
O404        C427   1.300       .  A
O405       Zr418   2.468       .  S
O405        C428   1.293       .  A
O406       Zr416   2.364       .  S
O406        C427   1.277       .  A
O407       Zr417   2.524       .  S
O407        C428   1.311       .  A
O408       Zr414   2.368       .  S
O408        C423   1.279       .  A
O409       Zr415   2.520       .  S
O409        C426   1.310       .  A
O410       Zr415   2.390       .  S
O410        C425   1.282       .  A
O411       Zr414   2.496       .  S
O411        C424   1.306       .  A
O412       Zr418   2.372       .  S
O412        C421   1.278       .  A
O413       Zr418   2.483       .  S
O413        C422   1.303       .  A
Zr414       O420   2.361       .  S
Zr414       O432   2.329       .  S
Zr415       O419   2.366       .  S
Zr415       O430   2.304       .  S
Zr416       O420   2.371       .  S
Zr416       O430   2.370       .  S
Zr417       O419   2.340       .  S
Zr417       O432   2.318       .  S
Zr418       O419   2.311       .  S
Zr418       O420   2.360       .  S
Zr418       O432   2.363       .  S
Zr418       O430   2.326       .  S
C423        C435   1.436       .  S
H429        O430   0.963       .  S
H431        O432   0.962       .  S
C433        N434   1.361       .  A
C433        N438   1.342       .  A
C433        C511   1.440       .  S
N434        C435   1.364       .  A
C435        N436   1.340       .  A
N436        C437   1.340       .  A
C437        N438   1.341       .  A
C437        C822   1.420       .  S
C439        N440   1.359       .  A
C439        N444   1.386       .  A
C439        C517   1.516       .  S
N440        C441   1.355       .  A
C441        N442   1.354       .  A
C441        C749   1.492       .  S
N442        C443   1.361       .  A
C443        N444   1.387       .  A
C445        N446   1.336       .  A
C445        N450   1.357       .  A
C445        C514   1.434       .  S
N446        C447   1.337       .  A
C447        N448   1.347       .  A
C447        C735   1.438       .  S
N448        C449   1.347       .  A
C449        N450   1.364       .  A
C451        N452   1.351       .  A
C451        N456   1.354       .  A
C451        C763   1.484       .  S
N452        C453   1.358       .  A
C453        N454   1.383       .  A
C453        C481   1.505       .  S
N454        C455   1.383       .  A
C455        N456   1.361       .  A
C457        N458   1.365       .  A
C457        N462   1.347       .  A
C457        C661   1.446       .  S
N458        C459   1.361       .  A
C459        N460   1.338       .  A
C459        C518   1.440       .  S
N460        C461   1.341       .  A
C461        N462   1.347       .  A
C461        C794   1.436       .  S
C463        N464   1.351       .  A
C463        N468   1.352       .  A
C463        C805   1.486       .  S
N464        C465   1.357       .  A
C465        N466   1.384       .  A
C465        C515   1.507       .  S
N466        C467   1.385       .  A
C467        N468   1.359       .  A
C467        C660   1.508       .  S
O469       Zr505   2.469       .  S
O469        C480   1.301       .  A
O470       Zr504   2.472       .  S
O470        C481   1.295       .  A
O471       Zr477   2.464       .  S
O471        C482   1.300       .  A
O472       Zr477   2.475       .  S
O472        C483   1.295       .  A
O473       Zr507   2.497       .  S
O473        C483   1.306       .  A
O474       Zr506   2.371       .  S
O474        C482   1.278       .  A
O475       Zr477   2.478       .  S
O475        C481   1.302       .  A
O476       Zr477   2.359       .  S
O476        C480   1.276       .  A
Zr477       O478   2.311       .  S
Zr477       O479   2.363       .  S
Zr477       O487   2.361       .  S
Zr477       O485   2.325       .  S
O478       Zr504   2.365       .  S
O478       Zr507   2.334       .  S
O479       Zr505   2.356       .  S
O479       Zr506   2.356       .  S
H484        O485   0.964       .  S
O485       Zr504   2.310       .  S
O485       Zr506   2.369       .  S
H486        O487   0.962       .  S
O487       Zr505   2.324       .  S
O487       Zr507   2.306       .  S
O488       Zr504   2.459       .  S
O488        C511   1.298       .  A
O489       Zr505   2.469       .  S
O489        C512   1.294       .  A
O490       Zr506   2.460       .  S
O490        C513   1.292       .  A
O491       Zr507   2.458       .  S
O491        C514   1.298       .  A
O492       Zr507   2.471       .  S
O492        C515   1.295       .  A
O493       Zr506   2.485       .  S
O493        C516   1.303       .  A
O494       Zr508   2.477       .  S
O494        C517   1.296       .  A
O495       Zr508   2.476       .  S
O495        C518   1.302       .  A
O496       Zr506   2.495       .  S
O496        C517   1.305       .  A
O497       Zr507   2.372       .  S
O497        C518   1.278       .  A
O498       Zr504   2.487       .  S
O498        C513   1.304       .  A
O499       Zr505   2.372       .  S
O499        C516   1.278       .  A
O500       Zr505   2.479       .  S
O500        C515   1.302       .  A
O501       Zr504   2.377       .  S
O501        C514   1.279       .  A
O502       Zr508   2.385       .  S
O502        C511   1.281       .  A
O503       Zr508   2.497       .  S
O503        C512   1.306       .  A
Zr504       O510   2.334       .  S
Zr504       O522   2.365       .  S
Zr505       O509   2.314       .  S
Zr505       O520   2.361       .  S
Zr506       O510   2.316       .  S
Zr506       O520   2.315       .  S
Zr507       O509   2.364       .  S
Zr507       O522   2.368       .  S
Zr508       O509   2.335       .  S
Zr508       O510   2.361       .  S
Zr508       O522   2.367       .  S
Zr508       O520   2.317       .  S
H519        O520   0.963       .  S
H521        O522   0.965       .  S
C523        N524   1.362       .  A
C523        N528   1.343       .  A
C523        C711   1.434       .  S
N524        C525   1.358       .  A
C525        N526   1.338       .  A
C525        C580   1.432       .  S
N526        C527   1.339       .  A
C527        N528   1.344       .  A
C527        C780   1.426       .  S
C529        N530   1.356       .  A
C529        N534   1.350       .  A
C529        C721   1.471       .  S
N530        C531   1.359       .  A
C531        N532   1.391       .  A
C531        C547   1.521       .  S
N532        C533   1.389       .  A
C533        N534   1.349       .  A
C533        C679   1.515       .  S
O535       Zr571   2.421       .  S
O535        C546   1.292       .  A
O536       Zr570   2.461       .  S
O536        C547   1.293       .  A
O537       Zr543   2.468       .  S
O537        C548   1.300       .  A
O538       Zr543   2.470       .  S
O538        C549   1.295       .  A
O539       Zr573   2.505       .  S
O539        C549   1.307       .  A
O540       Zr572   2.392       .  S
O540        C548   1.282       .  A
O541       Zr543   2.525       .  S
O541        C547   1.311       .  A
O542       Zr543   2.410       .  S
O542        C546   1.286       .  A
Zr543       O544   2.316       .  S
Zr543       O545   2.368       .  S
Zr543       O553   2.374       .  S
Zr543       O551   2.343       .  S
O544       Zr570   2.354       .  S
O544       Zr573   2.332       .  S
O545       Zr571   2.366       .  S
O545       Zr572   2.359       .  S
H550        O551   0.964       .  S
O551       Zr570   2.302       .  S
O551       Zr572   2.357       .  S
H552        O553   0.964       .  S
O553       Zr571   2.339       .  S
O553       Zr573   2.318       .  S
O554       Zr570   2.423       .  S
O554        C577   1.292       .  A
O555       Zr571   2.450       .  S
O555        C578   1.290       .  A
O556       Zr572   2.454       .  S
O556        C579   1.290       .  A
O557       Zr573   2.461       .  S
O557        C580   1.299       .  A
O558       Zr573   2.460       .  S
O558        C581   1.292       .  A
O559       Zr572   2.408       .  S
O559        C582   1.291       .  A
O560       Zr574   2.470       .  S
O560        C583   1.295       .  A
O561       Zr574   2.457       .  S
O561        C584   1.298       .  A
O562       Zr572   2.500       .  S
O562        C583   1.306       .  A
O563       Zr573   2.393       .  S
O563        C584   1.283       .  A
O564       Zr570   2.506       .  S
O564        C579   1.307       .  A
O565       Zr571   2.414       .  S
O565        C582   1.285       .  A
O566       Zr571   2.514       .  S
O566        C581   1.310       .  A
O567       Zr570   2.365       .  S
O567        C580   1.277       .  A
O568       Zr574   2.410       .  S
O568        C577   1.286       .  A
O569       Zr574   2.542       .  S
O569        C578   1.314       .  A
Zr570       O576   2.327       .  S
Zr570       O588   2.372       .  S
Zr571       O575   2.316       .  S
Zr571       O586   2.360       .  S
Zr572       O576   2.299       .  S
Zr572       O586   2.334       .  S
Zr573       O575   2.372       .  S
Zr573       O588   2.361       .  S
Zr574       O575   2.341       .  S
Zr574       O576   2.372       .  S
Zr574       O588   2.378       .  S
Zr574       O586   2.307       .  S
C577        C603   1.446       .  S
C583        C607   1.515       .  S
H585        O586   0.963       .  S
H587        O588   0.965       .  S
C589        N590   1.363       .  A
C589        N594   1.348       .  A
N590        C591   1.359       .  A
C591        N592   1.334       .  A
C591        C657   1.429       .  S
N592        C593   1.335       .  A
C593        N594   1.348       .  A
C593        C738   1.435       .  S
C595        N596   1.348       .  A
C595        N600   1.353       .  A
C595        C724   1.470       .  S
N596        C597   1.350       .  A
C597        N598   1.388       .  A
N598        C599   1.390       .  A
C599        N600   1.356       .  A
C599        C625   1.517       .  S
C601        N602   1.364       .  A
C601        N606   1.340       .  A
C601        C655   1.444       .  S
N602        C603   1.367       .  A
C603        N604   1.351       .  A
N604        C605   1.337       .  A
C605        N606   1.332       .  A
C605        C847   1.436       .  S
C607        N608   1.360       .  A
C607        N612   1.386       .  A
N608        C609   1.354       .  A
C609        N610   1.357       .  A
C609        C752   1.489       .  S
N610        C611   1.359       .  A
C611        N612   1.387       .  A
C611        C662   1.518       .  S
O613       Zr649   2.404       .  S
O613        C624   1.288       .  A
O614       Zr648   2.455       .  S
O614        C625   1.291       .  A
O615       Zr621   2.454       .  S
O615        C626   1.292       .  A
O616       Zr621   2.453       .  S
O616        C627   1.297       .  A
O617       Zr651   2.389       .  S
O617        C627   1.282       .  A
O618       Zr650   2.508       .  S
O618        C626   1.308       .  A
O619       Zr621   2.537       .  S
O619        C625   1.313       .  A
O620       Zr621   2.418       .  S
O620        C624   1.286       .  A
Zr621       O622   2.337       .  S
Zr621       O623   2.369       .  S
Zr621       O631   2.383       .  S
Zr621       O629   2.314       .  S
O622       Zr648   2.302       .  S
O622       Zr651   2.372       .  S
O623       Zr649   2.328       .  S
O623       Zr650   2.305       .  S
H628        O629   0.963       .  S
O629       Zr648   2.356       .  S
O629       Zr650   2.331       .  S
H630        O631   0.967       .  S
O631       Zr649   2.370       .  S
O631       Zr651   2.372       .  S
O632       Zr648   2.428       .  S
O632        C655   1.295       .  A
O633       Zr649   2.449       .  S
O633        C656   1.290       .  A
O634       Zr650   2.461       .  S
O634        C657   1.300       .  A
O635       Zr651   2.468       .  S
O635        C658   1.294       .  A
O636       Zr651   2.467       .  S
O636        C659   1.299       .  A
O637       Zr650   2.474       .  S
O637        C660   1.295       .  A
O638       Zr652   2.476       .  S
O638        C661   1.302       .  A
O639       Zr652   2.470       .  S
O639        C662   1.295       .  A
O640       Zr650   2.389       .  S
O640        C661   1.283       .  A
O641       Zr651   2.526       .  S
O641        C662   1.311       .  A
O642       Zr648   2.363       .  S
O642        C657   1.276       .  A
O643       Zr649   2.492       .  S
O643        C660   1.304       .  A
O644       Zr649   2.376       .  S
O644        C659   1.279       .  A
O645       Zr648   2.478       .  S
O645        C658   1.302       .  A
O646       Zr652   2.406       .  S
O646        C655   1.284       .  A
O647       Zr652   2.521       .  S
O647        C656   1.311       .  A
Zr648       O654   2.357       .  S
Zr648       O666   2.326       .  S
Zr649       O653   2.353       .  S
Zr649       O664   2.304       .  S
Zr650       O654   2.360       .  S
Zr650       O664   2.369       .  S
Zr651       O653   2.334       .  S
Zr651       O666   2.306       .  S
Zr652       O653   2.317       .  S
Zr652       O654   2.368       .  S
Zr652       O666   2.370       .  S
Zr652       O664   2.336       .  S
H663        O664   0.964       .  S
H665        O666   0.960       .  S
O667       Zr703   2.383       .  S
O667        C678   1.284       .  A
O668       Zr702   2.442       .  S
O668        C679   1.288       .  A
O669       Zr675   2.444       .  S
O669        C680   1.290       .  A
O670       Zr675   2.407       .  S
O670        C681   1.289       .  A
O671       Zr705   2.441       .  S
O671        C681   1.291       .  A
O672       Zr704   2.545       .  S
O672        C680   1.316       .  A
O673       Zr675   2.542       .  S
O673        C679   1.315       .  A
O674       Zr675   2.425       .  S
O674        C678   1.288       .  A
Zr675       O676   2.339       .  S
Zr675       O677   2.360       .  S
Zr675       O685   2.373       .  S
Zr675       O683   2.306       .  S
O676       Zr702   2.302       .  S
O676       Zr705   2.364       .  S
O677       Zr703   2.342       .  S
O677       Zr704   2.315       .  S
H682        O683   0.964       .  S
O683       Zr702   2.360       .  S
O683       Zr704   2.335       .  S
H684        O685   0.967       .  S
O685       Zr703   2.370       .  S
O685       Zr705   2.377       .  S
O686       Zr702   2.415       .  S
O686        C709   1.292       .  A
O687       Zr703   2.444       .  S
O687        C710   1.288       .  A
O688       Zr704   2.460       .  S
O688        C711   1.299       .  A
O689       Zr705   2.444       .  S
O689        C712   1.290       .  A
O690       Zr705   2.398       .  S
O690        C713   1.289       .  A
O691       Zr704   2.464       .  S
O691        C714   1.294       .  A
O692       Zr706   2.421       .  S
O692        C715   1.293       .  A
O693       Zr706   2.439       .  S
O693        C716   1.288       .  A
O694       Zr704   2.425       .  S
O694        C715   1.289       .  A
O695       Zr705   2.557       .  S
O695        C716   1.319       .  A
O696       Zr702   2.370       .  S
O696        C711   1.279       .  A
O697       Zr703   2.521       .  S
O697        C714   1.311       .  A
O698       Zr703   2.414       .  S
O698        C713   1.286       .  A
O699       Zr702   2.511       .  S
O699        C712   1.308       .  A
O700       Zr706   2.395       .  S
O700        C709   1.282       .  A
O701       Zr706   2.526       .  S
O701        C710   1.311       .  A
Zr702       O708   2.360       .  S
Zr702       O720   2.322       .  S
Zr703       O707   2.358       .  S
Zr703       O718   2.301       .  S
Zr704       O708   2.368       .  S
Zr704       O718   2.379       .  S
Zr705       O707   2.344       .  S
Zr705       O720   2.302       .  S
Zr706       O707   2.309       .  S
Zr706       O708   2.366       .  S
Zr706       O720   2.367       .  S
Zr706       O718   2.325       .  S
H717        O718   0.961       .  S
H719        O720   0.959       .  S
C721        C722   1.413       .  A
C721        C726   1.411       .  A
C722        C723   1.401   1_554  A
C722        C727   1.455       .  S
C723        C724   1.413       .  A
C723        C730   1.453       .  S
C724        C725   1.409       .  A
C725        C726   1.409   1_556  A
C725        C728   1.451       .  S
C726        C729   1.449       .  S
C727        N734   1.157       .  T
C728        N733   1.157   1_545  T
C729        N731   1.157   1_545  T
C730        N732   1.157       .  T
C735        C736   1.406       .  A
C735        C740   1.411       .  A
C736        C737   1.393       .  A
C736        C741   1.447       .  S
C737        C738   1.403       .  A
C737        C744   1.451       .  S
C738        C739   1.414       .  A
C739        C740   1.384       .  A
C739        C742   1.459       .  S
C740        C743   1.459       .  S
C741        N748   1.155       .  T
C742        N747   1.157       .  T
C743        N745   1.158       .  T
C744        N746   1.157       .  T
C749        C750   1.416       .  A
C749        C754   1.415       .  A
C750        C751   1.410       .  A
C750        C755   1.451       .  S
C751        C752   1.413   1_565  A
C751        C758   1.453   1_565  S
C752        C753   1.414   1_545  A
C753        C754   1.417       .  A
C753        C756   1.451   1_565  S
C754        C757   1.450       .  S
C755        N762   1.157       .  T
C756        N761   1.157       .  T
C757        N759   1.157       .  T
C758        N760   1.157       .  T
C763        C764   1.414       .  A
C763        C768   1.411       .  A
C764        C765   1.409   1_556  A
C764        C769   1.453       .  S
C765        C766   1.413       .  A
C765        C772   1.453       .  S
C766        C767   1.414       .  A
C767        C768   1.414   1_554  A
C767        C770   1.450       .  S
C768        C771   1.450       .  S
C769        N776   1.157       .  T
C770        N775   1.157       .  T
C771        N773   1.157       .  T
C772        N774   1.157       .  T
C777        C778   1.404       .  A
C777        C782   1.403       .  A
C778        C779   1.380       .  A
C778        C783   1.459       .  S
C779        C780   1.414       .  A
C779        C786   1.458       .  S
C780        C781   1.405       .  A
C781        C782   1.391       .  A
C781        C784   1.451       .  S
C782        C785   1.450       .  S
C783        N790   1.158       .  T
C784        N789   1.157       .  T
C785        N787   1.156       .  T
C786        N788   1.157       .  T
C791        C792   1.412       .  A
C791        C796   1.407       .  A
C792        C793   1.383       .  A
C792        C797   1.458       .  S
C793        C794   1.411       .  A
C793        C800   1.459       .  S
C794        C795   1.405       .  A
C795        C796   1.398       .  A
C795        C798   1.450       .  S
C796        C799   1.452       .  S
C797        N804   1.157       .  T
C798        N803   1.157       .  T
C799        N801   1.157       .  T
C800        N802   1.157       .  T
C805        C806   1.413       .  A
C805        C810   1.414       .  A
C806        C807   1.415   1_655  A
C806        C811   1.451       .  S
C807        C808   1.414       .  A
C807        C814   1.449       .  S
C808        C809   1.415       .  A
C809        C810   1.408   1_455  A
C809        C812   1.453       .  S
C810        C813   1.452       .  S
C811        N818   1.157       .  T
C812        N817   1.157       .  T
C813        N815   1.157       .  T
C814        N816   1.157       .  T
C819        C820   1.407       .  A
C819        C824   1.402       .  A
C820        C821   1.382       .  A
C820        C825   1.457       .  S
C821        C822   1.405       .  A
C821        C828   1.456       .  S
C822        C823   1.402       .  A
C823        C824   1.393       .  A
C823        C826   1.448       .  S
C824        C827   1.449       .  S
C825        N832   1.157       .  T
C826        N831   1.156       .  T
C827        N829   1.157       .  T
C828        N830   1.157       .  T
C833        C834   1.407   1_545  A
C833        C838   1.411   1_545  A
C834        C835   1.406       .  A
C834        C839   1.451   1_565  S
C835        C836   1.410       .  A
C835        C842   1.450       .  S
C836        C837   1.412       .  A
C837        C838   1.397       .  A
C837        C840   1.454       .  S
C838        C841   1.456   1_565  S
C839        N846   1.157       .  T
C840        N845   1.157       .  T
C841        N843   1.158       .  T
C842        N844   1.157       .  T
C847        C848   1.409       .  A
C847        C852   1.408       .  A
C848        C849   1.382       .  A
C848        C853   1.457       .  S
C849        C850   1.412       .  A
C849        C856   1.458       .  S
C850        C851   1.405       .  A
C851        C852   1.398       .  A
C851        C854   1.452       .  S
C852        C855   1.452       .  S
C853        N860   1.157       .  T
C854        N859   1.157       .  T
C855        N857   1.157       .  T
C856        N858   1.157       .  T
C861        C862   1.411       .  A
C861        C866   1.411       .  A
C862        C863   1.408   1_455  A
C862        C867   1.451       .  S
C863        C864   1.409       .  A
C863        C870   1.450       .  S
C864        C865   1.414       .  A
C865        C866   1.403   1_655  A
C865        C868   1.454       .  S
C866        C869   1.453       .  S
C867        N874   1.157       .  T
C868        N873   1.157       .  T
C869        N871   1.157       .  T
C870        N872   1.157       .  T
C875        C876   1.406       .  A
C875        C880   1.415       .  A
C876        C877   1.401       .  A
C876        C881   1.451       .  S
C877        C878   1.408       .  A
C877        C884   1.450       .  S
C878        C879   1.411       .  A
C879        C880   1.384       .  A
C879        C882   1.458       .  S
C880        C883   1.458       .  S
C881        N888   1.157       .  T
C882        N887   1.157       .  T
C883        N885   1.157       .  T
C884        N886   1.157       .  T
C889        C890   1.414       .  A
C889        C894   1.407   1_655  A
C890        C891   1.384       .  A
C890        C895   1.458       .  S
C891        C892   1.410   1_565  A
C891        C898   1.459   1_565  S
C892        C893   1.409   1_645  A
C893        C894   1.399       .  A
C893        C896   1.452   1_565  S
C894        C897   1.452       .  S
C895        N902   1.157       .  T
C896        N901   1.158       .  T
C897        N899   1.157       .  T
C898        N900   1.157       .  T
C903        C904   1.415   1_655  A
C903        C908   1.416       .  A
C904        C905   1.408       .  A
C904        C909   1.451       .  S
C905        C906   1.413   1_455  A
C905        C912   1.454       .  S
C906        C907   1.414       .  A
C907        C908   1.413       .  A
C907        C910   1.451       .  S
C908        C911   1.452       .  S
C909        N916   1.157       .  T
C910        N915   1.157       .  T
C911        N913   1.157       .  T
C912        N914   1.157       .  T
C917        C918   1.407       .  A
C917        C922   1.410   1_655  A
C918        C919   1.407       .  A
C918        C923   1.450       .  S
C919        C920   1.411       .  A
C919        C926   1.449       .  S
C920        C921   1.413   1_655  A
C921        C922   1.401       .  A
C921        C924   1.453       .  S
C922        C925   1.455       .  S
C923        N930   1.157       .  T
C924        N929   1.157       .  T
C925        N927   1.158       .  T
C926        N928   1.157       .  T
C931        C932   1.415       .  A
C931        C936   1.408   1_655  A
C932        C933   1.384       .  A
C932        C937   1.458       .  S
C933        C934   1.410   1_565  A
C933        C940   1.458   1_565  S
C934        C935   1.407   1_645  A
C935        C936   1.398       .  A
C935        C938   1.452   1_565  S
C936        C939   1.452       .  S
C937        N944   1.157       .  T
C938        N943   1.157       .  T
C939        N941   1.157       .  T
C940        N942   1.157       .  T
C945        C946   1.412       .  A
C945        C950   1.411       .  A
C946        C947   1.408       .  A
C946        C951   1.452   1_565  S
C947        C948   1.415       .  A
C947        C954   1.452   1_565  S
C948        C949   1.411       .  A
C949        C950   1.408       .  A
C949        C952   1.449       .  S
C950        C953   1.449       .  S
C951        N958   1.157       .  T
C952        N957   1.156       .  T
C953        N955   1.156       .  T
C954        N956   1.157       .  T
C959        C960   1.409       .  A
C959        C964   1.409   1_565  A
C960        C961   1.403   1_556  A
C960        C965   1.451       .  S
C961        C962   1.420       .  A
C961        C968   1.451       .  S
C962        C963   1.423   1_565  A
C963        C964   1.406   1_554  A
C963        C966   1.452       .  S
C964        C967   1.452       .  S
C965        N972   1.157       .  T
C966        N971   1.158       .  T
C967        N969   1.157       .  T
C968        N970   1.157       .  T
C973        C974   1.415       .  A
C973        C978   1.411       .  A
C974        C975   1.404       .  A
C974        C979   1.452   1_565  S
C975        C976   1.413       .  A
C975        C982   1.453   1_565  S
C976        C977   1.411       .  A
C977        C978   1.412       .  A
C977        C980   1.449       .  S
C978        C981   1.448       .  S
C979        N986   1.157       .  T
C980        N985   1.157       .  T
C981        N983   1.157       .  T
C982        N984   1.157       .  T
C987        C988   1.402       .  A
C987        C992   1.408       .  A
C988        C989   1.394   1_554  A
C988        C993   1.450       .  S
C989        C990   1.402       .  A
C989        C996   1.446       .  S
C990        C991   1.405       .  A
C991        C992   1.382   1_556  A
C991        C994   1.458       .  S
C992        C995   1.456       .  S
C993       N1000   1.157       .  T
C994        N999   1.158       .  T
C995        N997   1.157       .  T
C996        N998   1.155       .  T
C1001      C1002   1.415       .  A
C1001      C1006   1.413   1_554  A
C1002      C1003   1.410       .  A
C1002      C1007   1.452       .  S
C1003      C1004   1.414       .  A
C1003      C1010   1.452       .  S
C1004      C1005   1.411   1_554  A
C1005      C1006   1.410       .  A
C1005      C1008   1.450       .  S
C1006      C1009   1.450       .  S
C1007      N1014   1.157       .  T
C1008      N1013   1.157       .  T
C1009      N1011   1.157       .  T
C1010      N1012   1.157       .  T
C1015      C1016   1.410       .  A
C1015      C1020   1.407   1_556  A
C1016      C1017   1.384   1_655  A
C1016      C1021   1.460       .  S
C1017      C1018   1.417       .  A
C1017      C1024   1.459       .  S
C1018      C1019   1.406   1_556  A
C1019      C1020   1.399   1_455  A
C1019      C1022   1.451       .  S
C1020      C1023   1.451       .  S
C1021      N1028   1.157       .  T
C1022      N1027   1.157       .  T
C1023      N1025   1.157       .  T
C1024      N1026   1.157       .  T
C1029      C1030   1.413   1_554  A
C1029      C1034   1.414       .  A
C1030      C1031   1.410       .  A
C1030      C1035   1.450       .  S
C1031      C1032   1.411   1_556  A
C1031      C1038   1.450       .  S
C1032      C1033   1.412       .  A
C1033      C1034   1.399       .  A
C1033      C1036   1.455       .  S
C1034      C1037   1.453       .  S
C1035      N1042   1.157       .  T
C1036      N1041   1.157       .  T
C1037      N1039   1.157       .  T
C1038      N1040   1.157       .  T
C1043      C1044   1.405   1_556  A
C1043      C1048   1.413       .  A
C1044      C1045   1.392   1_655  A
C1044      C1049   1.451       .  S
C1045      C1046   1.407   1_554  A
C1045      C1052   1.453       .  S
C1046      C1047   1.413       .  A
C1047      C1048   1.383   1_455  A
C1047      C1050   1.459       .  S
C1048      C1051   1.460       .  S
C1049      N1056   1.156       .  T
C1050      N1055   1.158       .  T
C1051      N1053   1.158       .  T
C1052      N1054   1.157       .  T
