geometry optimzed in LAMMPS
_audit_creation_date              2020-11-30 
_audit_creation_method            'lammps2cif' 
_symmetry_space_group_name_H-M    'P1' 
_symmetry_Int_Tables_number       1 
_symmetry_cell_setting            triclinic 
loop_ 
_symmetry_equiv_pos_as_xyz 
  x,y,z 
_cell_length_a                    37.645230625477325 
_cell_length_b                    38.190663902708984 
_cell_length_c                    31.604679052831152 
_cell_angle_alpha                 89.38037684594211 
_cell_angle_beta                  90.12801305063333 
_cell_angle_gamma                 121.19225085312378 
loop_ 
_atom_site_label 
_atom_site_type_symbol 
_atom_site_fract_x 
_atom_site_fract_y 
_atom_site_fract_z 
_atom_site_charge 
C1          C  0.39247892  0.06863781  0.25044247     0.03380
C2          C  0.38491914  0.08133666  0.28907326    -0.12770
C3          C  0.36829693  0.10678659  0.28967832     0.00880
C4          C  0.35945819  0.11943752  0.25128839    -0.11290
C5          C  0.36680150  0.10660190  0.21267308     0.03370
C6          C  0.38354911  0.08138106  0.21227373    -0.10710
H7          H  0.39165757  0.07113416  0.31850121     0.08970
H8          H  0.34548521  0.13813487  0.25143561     0.06500
H9          H  0.38857330  0.07078694  0.18246632     0.06350
C10         C  0.33472224  0.36245825  0.28725999     0.03380
C11         C  0.32422789  0.34117731  0.24906049    -0.12770
C12         C  0.33480307  0.36241952  0.21031251     0.00880
C13         C  0.35631041  0.40528801  0.20981671    -0.11290
C14         C  0.36773919  0.42675467  0.24800948     0.03370
C15         C  0.35627422  0.40529229  0.28668682    -0.10710
H16         H  0.30856560  0.30804062  0.24948998     0.08970
H17         H  0.36606822  0.42189942  0.17996369     0.06500
H18         H  0.36599892  0.42191482  0.31615903     0.06350
Fe19       Fe  0.22606469  0.20488166  0.00016135     1.65780
Fe20       Fe  0.23701584  0.12111547  0.49890493     1.73250
Fe21       Fe  0.32326902  0.21800021  0.50052398     1.54420
O22         O  0.32284714  0.25595268  0.45360570    -0.81420
O23         O  0.27412463  0.12208158  0.04719186    -0.79730
O24         O  0.25964997  0.24725693  0.45337783    -0.83920
O25         O  0.25906412  0.24609829  0.04721362    -0.78780
O26         O  0.33261899  0.18706028  0.45295783    -0.80560
O27         O  0.19324579  0.11004019  0.04466144    -0.83300
C28         C  0.29532063  0.26188593  0.06237000     0.97460
C29         C  0.29623425  0.26366766  0.43871107     1.04900
O30         O  0.26212970  0.18133233  0.49983681    -1.12280
O31         O  0.19668155  0.11321012  0.45060055    -0.74720
O32         O  0.18873977  0.16716954  0.45273816    -0.78200
O33         O  0.32184302  0.25389635  0.04818791    -0.78890
C34         C  0.18120306  0.13371010  0.43683279     0.96370
O35         O  0.18803614  0.16533063  0.04711634    -0.76850
O36         O  0.27756236  0.12379913  0.45326429    -0.82040
C37         C  0.30914118  0.14817727  0.06234003     0.98990
C38         C  0.31258463  0.15104997  0.43850653     1.04910
O39         O  0.33107802  0.18424556  0.04733238    -0.77690
C40         C  0.17832022  0.13002842  0.06061527     1.03210
C41         C  0.07818282  0.07538230  0.28783915     0.03380
C42         C  0.09814375  0.07863898  0.24903584    -0.12770
C43         C  0.07633136  0.06878125  0.21088048     0.00880
C44         C  0.03345912  0.05250771  0.21126507    -0.11290
C45         C  0.51271473  0.04729827  0.24965119     0.03370
C46         C  0.03509488  0.05962612  0.28760981    -0.10710
H47         H  0.13122701  0.09053445  0.24789907     0.08970
H48         H  0.51649297  0.04523953  0.18173674     0.06500
H49         H  0.51877331  0.05797577  0.31636489     0.06350
Fe50       Fe  0.12375107  0.32518243  0.00124911     1.65780
Fe51       Fe  0.11008480  0.40713808  0.49970444     1.73250
Fe52       Fe  0.02593815  0.30936569  0.49825182     1.54410
O53         O  0.02920158  0.26997215  0.45561917    -0.81420
O54         O  0.07122344  0.40382264  0.04733151    -0.79730
O55         O  0.09543314  0.28789485  0.45040741    -0.83930
O56         O  0.08710415  0.27869228  0.04408634    -0.78780
O57         O  0.01910287  0.33904698  0.44696765    -0.80560
O58         O  0.15392157  0.41761121  0.04618292    -0.83300
C59         C  0.05233122  0.26617170  0.06198962     0.97460
C60         C  0.05803539  0.26708819  0.43831003     1.04900
O61         O  0.08660813  0.34730648  0.49972460    -1.12280
O62         O  0.15128934  0.41748833  0.45177468    -0.74720
O63         O  0.16587450  0.36829689  0.45865353    -0.78200
O64         O  0.02710683  0.27670032  0.04972349    -0.78890
C65         C  0.17132124  0.40070528  0.44088333     0.96370
O66         O  0.15557398  0.36021229  0.05231779    -0.76850
O67         O  0.06956647  0.40427223  0.45322157    -0.82040
C68         C  0.03433835  0.37739869  0.05817868     0.98990
C69         C  0.03751834  0.37614483  0.43469383     1.04910
O70         O  0.01370220  0.34269872  0.04077178    -0.77690
C71         C  0.16600249  0.39577370  0.06455456     1.03210
C72         C  0.45591952  0.45970166  0.24729379     0.03380
C73         C  0.46138450  0.44584536  0.20839543    -0.12770
C74         C  0.47690768  0.41948220  0.20689800     0.00880
C75         C  0.48583047  0.40620924  0.24490232    -0.11290
C76         C  0.48101374  0.42036230  0.28396094     0.03370
C77         C  0.46605946  0.44724343  0.28499121    -0.10710
H78         H  0.45384529  0.45590135  0.17935714     0.08970
H79         H  0.49864404  0.38651905  0.24402563     0.06500
H80         H  0.46227295  0.45842850  0.31500196     0.06350
C81         C  0.27268039  0.45788826  0.29023137     0.03380
C82         C  0.24998141  0.44838005  0.25250352    -0.12770
C83         C  0.26975209  0.45490055  0.21311026     0.00880
C84         C  0.31291561  0.97191193  0.21164841    -0.11290
C85         C  0.33574332  0.98136024  0.24933221     0.03370
C86         C  0.31559748  0.97420556  0.28844851    -0.10710
H87         H  0.21656092  0.43460713  0.25383782     0.08970
H88         H  0.32852256  0.97659784  0.18151155     0.06500
H89         H  0.33334071  0.98116316  0.31744600     0.06350
C90         C  0.01626459  0.16535271  0.29048368     0.03380
C91         C  0.02797920  0.18722645  0.25203894    -0.12770
C92         C  0.01531478  0.16685558  0.21318999     0.00880
C93         C  0.49190882  0.12395548  0.21308682    -0.11290
C94         C  0.48048346  0.10179283  0.25131908     0.03370
C95         C  0.49243541  0.12247014  0.28995800    -0.10710
H96         H  0.04586041  0.22039986  0.25243625     0.08970
H97         H  0.48073805  0.10776271  0.18351334     0.06500
H98         H  0.48254307  0.10522449  0.31943369     0.06350
C99         C  0.40871595  0.04078350  0.24991182     0.02540
C100        C  0.45187940  0.05693174  0.25078022     0.02540
C101        C  0.46743250  0.03041279  0.24983188     0.02540
C102        C  0.43972044  0.48770785  0.24834584     0.02540
C103        C  0.39647710  0.47159940  0.24771934     0.02540
C104        C  0.38099529  0.99816072  0.24829801     0.02540
C105        C  0.01610657  0.22317906  0.17198289    -0.21050
C106        C  0.02363078  0.19081494  0.17337444    -0.09100
C107        C  0.03921654  0.18228135  0.13696147     0.29760
C108        C  0.04868927  0.20691876  0.10063192    -0.21050
C109        C  0.04131254  0.23935960  0.09959086    -0.09110
C110        C  0.02450771  0.24700235  0.13545091     0.29770
F111        F  0.01783016  0.27864056  0.13581851    -0.19630
H112        H  0.00344748  0.22995297  0.19929643     0.18130
H113        H  0.06149225  0.20050236  0.07318902     0.18140
F114        F  0.54609456  0.15078519  0.13667999    -0.19620
C115        C  0.00639134  0.20778736  0.39472694    -0.21050
C116        C  0.04778651  0.23883210  0.40222065    -0.09100
C117        C  0.07894725  0.24332711  0.37403582     0.29760
C118        C  0.06853701  0.21832663  0.33861439    -0.21050
C119        C  0.02714208  0.18805282  0.33072854    -0.09110
C120        C  0.49614048  0.18242762  0.35950643     0.29770
F121        F  0.45572148  0.15378988  0.35247424    -0.19630
H122        H  0.48177695  0.20343916  0.41585856     0.18130
H123        H  0.09281650  0.22312319  0.31672921     0.18140
F124        F  0.11933362  0.27294307  0.37955178    -0.19620
C125        C  0.25464752  0.42141708  0.35984743    -0.21050
C126        C  0.25074457  0.44760123  0.33133173    -0.09100
C127        C  0.22353976  0.46123149  0.34096169     0.29760
C128        C  0.19913946  0.44719361  0.37757945    -0.21050
C129        C  0.20104567  0.41891745  0.40502134    -0.09110
C130        C  0.22987245  0.40686182  0.39622133     0.29770
F131        F  0.23366441  0.38044944  0.42219305    -0.19630
H132        H  0.27581083  0.41097363  0.35302188     0.18130
H133        H  0.17762283  0.45739891  0.38359451     0.18140
F134        F  0.22022472  0.98772103  0.31463729    -0.19620
C135        C  0.22546298  0.45263787  0.10417154    -0.21050
C136        C  0.19278587  0.41162804  0.10230315    -0.09100
C137        C  0.18626050  0.38519670  0.13666782     0.29760
C138        C  0.21157444  0.39966422  0.17230160    -0.21050
C139        C  0.24435570  0.44050100  0.17422099    -0.09110
C140        C  0.25155118  0.46687786  0.13961295     0.29770
F141        F  0.28324356  0.00642601  0.14040642    -0.19630
H142        H  0.23121172  0.47338649  0.07789626     0.18130
H143        H  0.20567876  0.37881731  0.19853569     0.18140
F144        F  0.15467151  0.34552287  0.13627887    -0.19620
C145        C  0.47757137  0.36761602  0.33417842    -0.21050
C146        C  0.49405971  0.40889105  0.32331483    -0.09100
C147        C  0.02477981  0.43918191  0.34899235     0.29760
C148        C  0.03817634  0.42843426  0.38547614    -0.21050
C149        C  0.02145721  0.38706452  0.39689049    -0.09110
C150        C  0.49073639  0.35663545  0.37071535     0.29770
F151        F  0.47409545  0.31622588  0.37957122    -0.19630
H152        H  0.45477241  0.34380072  0.31402921     0.18130
H153        H  0.06226205  0.45261688  0.40435159     0.18140
F154        F  0.04358974  0.47907524  0.33722122    -0.19620
C155        C  0.02627471  0.42789850  0.10014572    -0.21050
C156        C  0.01520333  0.38719091  0.09334251    -0.09100
C157        C  0.98797125  0.35660161  0.12206853     0.29760
C158        C  0.47473932  0.36713303  0.15844333    -0.21050
C159        C  0.48687646  0.40799976  0.16594157    -0.09110
C160        C  0.51163107  0.43816229  0.13566444     0.29770
F161        F  0.52347701  0.47788366  0.14148620    -0.19630
H162        H  0.04679119  0.45191735  0.07820000     0.18130
H163        H  0.45568538  0.34340635  0.18129258     0.18140
F164        F  0.97586907  0.31681294  0.11625496    -0.19620
C165        C  0.13843930  0.13695000  0.11964138    -0.21050
C166        C  0.14948004  0.11227794  0.09731226    -0.09100
C167        C  0.13464026  0.07192780  0.11213842     0.29760
C168        C  0.11012051  0.05732381  0.14881545    -0.21050
C169        C  0.09970885  0.08240048  0.17084220    -0.09110
C170        C  0.11417017  0.12230925  0.15619176     0.29770
F171        F  0.10620349  0.14769819  0.17845313    -0.19630
H172        H  0.14964627  0.16819488  0.10962278     0.18130
H173        H  0.10002770  0.02680757  0.16054150     0.18140
F174        F  0.14424996  0.04676283  0.09178997    -0.19620
C175        C  0.11344349  0.08616449  0.40312654    -0.21050
C176        C  0.15439234  0.11894527  0.39965131    -0.09100
C177        C  0.16955077  0.13848780  0.36051064     0.29760
C178        C  0.14422273  0.12474323  0.32489772    -0.21050
C179        C  0.10326324  0.09086612  0.32739632    -0.09110
C180        C  0.08774714  0.07244334  0.36754103     0.29770
F181        F  0.04812711  0.04104973  0.37289559    -0.19630
H182        H  0.10128628  0.07139232  0.43352948     0.18130
H183        H  0.15687270  0.14108976  0.29534060     0.18140
F184        F  0.20914653  0.17057767  0.35664434    -0.19620
C185        C  0.34040850  0.29792160  0.37498568    -0.21050
C186        C  0.30787103  0.29183460  0.40180367    -0.09100
C187        C  0.28538214  0.31096967  0.39141498     0.29760
C188        C  0.29494878  0.33493665  0.35460848    -0.21050
C189        C  0.32657354  0.33977456  0.32749278    -0.09110
C190        C  0.34938904  0.32132851  0.33794923     0.29770
F191        F  0.37979987  0.32537674  0.31173723    -0.19630
H192        H  0.35804299  0.28340493  0.38190209     0.18130
H193        H  0.27690476  0.34875612  0.34659939     0.18140
F194        F  0.25402099  0.30636335  0.41656747    -0.19620
C195        C  0.29523055  0.33488795  0.14332538    -0.21050
C196        C  0.32662761  0.33953957  0.17074186    -0.09100
C197        C  0.34883061  0.32029937  0.16153251     0.29760
C198        C  0.33934690  0.29615249  0.12556902    -0.21050
C199        C  0.30689764  0.29007738  0.09861390    -0.09110
C200        C  0.28509275  0.31007879  0.10765995     0.29770
F201        F  0.25397211  0.30566344  0.08219714    -0.19630
H202        H  0.27786279  0.34960558  0.15020498     0.18130
H203        H  0.35661140  0.28117395  0.11955726     0.18140
F204        F  0.37920161  0.32436940  0.18789743    -0.19620
C205        C  0.36706866  0.15715013  0.10913666    -0.21050
C206        C  0.32439989  0.13622133  0.09970394    -0.09100
C207        C  0.29627777  0.10472803  0.12728571     0.29760
C208        C  0.31058738  0.09529984  0.16384116    -0.21050
C209        C  0.35300182  0.11631447  0.17313592    -0.09110
C210        C  0.38134799  0.14698978  0.14542608     0.29770
F211        F  0.42257242  0.16764243  0.15402481    -0.19630
H212        H  0.38935486  0.18139198  0.08844811     0.18130
H213        H  0.28848087  0.07164032  0.18519004     0.18140
F214        F  0.25477892  0.08395958  0.11988281    -0.19620
C215        C  0.37159182  0.15963780  0.33790468    -0.21050
C216        C  0.35767970  0.11841261  0.33005340    -0.09100
C217        C  0.33108865  0.08830829  0.35941216     0.29760
C218        C  0.31728583  0.09925237  0.39507686    -0.21050
C219        C  0.33021716  0.14042031  0.40246300    -0.09110
C220        C  0.35834477  0.17071986  0.37390005     0.29770
F221        F  0.37150699  0.21083201  0.37951963    -0.19630
H222        H  0.39221266  0.18323087  0.31563632     0.18130
H223        H  0.29587817  0.07535174  0.41662231     0.18140
F224        F  0.31673612  0.04812857  0.35250366    -0.19620
C225        C  0.39247892  0.06863780  0.75044247     0.03380
C226        C  0.38491914  0.08133665  0.78907326    -0.12770
C227        C  0.36829692  0.10678658  0.78967832     0.00880
C228        C  0.35945817  0.11943749  0.75128839    -0.11290
C229        C  0.36680147  0.10660187  0.71267308     0.03370
C230        C  0.38354910  0.08138103  0.71227372    -0.10710
H231        H  0.39165758  0.07113416  0.81850120     0.08970
H232        H  0.34548518  0.13813483  0.75143561     0.06500
H233        H  0.38857329  0.07078692  0.68246632     0.06350
C234        C  0.33472226  0.36245828  0.78725998     0.03380
C235        C  0.32422791  0.34117734  0.74906048    -0.12770
C236        C  0.33480308  0.36241955  0.71031251     0.00880
C237        C  0.35631043  0.40528803  0.70981670    -0.11290
C238        C  0.36773921  0.42675470  0.74800947     0.03370
C239        C  0.35627424  0.40529231  0.78668682    -0.10710
H240        H  0.30856562  0.30804064  0.74948997     0.08970
H241        H  0.36606823  0.42189944  0.67996368     0.06500
H242        H  0.36599894  0.42191485  0.81615902     0.06350
Fe243      Fe  0.22606467  0.20488165  0.50016138     1.65780
Fe244      Fe  0.23701585  0.12111548  0.99890493     1.73250
Fe245      Fe  0.32326903  0.21800023  0.00052397     1.54420
O246        O  0.32284716  0.25595269  0.95360568    -0.81420
O247        O  0.27412460  0.12208155  0.54719188    -0.79730
O248        O  0.25964999  0.24725696  0.95337782    -0.83920
O249        O  0.25906412  0.24609829  0.54721363    -0.78780
O250        O  0.33261901  0.18706029  0.95295782    -0.80560
O251        O  0.19324576  0.11004017  0.54466143    -0.83300
C252        C  0.29532063  0.26188592  0.56237001     0.97460
C253        C  0.29623427  0.26366767  0.93871105     1.04900
O254        O  0.26212972  0.18133234  0.99983680    -1.12280
O255        O  0.19668154  0.11321012  0.95060056    -0.74720
O256        O  0.18873980  0.16716956  0.95273813    -0.78200
O257        O  0.32184301  0.25389632  0.54818794    -0.78890
C258        C  0.18120308  0.13371010  0.93683278     0.96370
O259        O  0.18803614  0.16533063  0.54711638    -0.76850
O260        O  0.27756237  0.12379914  0.95326427    -0.82040
C261        C  0.30914115  0.14817724  0.56234004     0.98990
C262        C  0.31258464  0.15104998  0.93850652     1.04910
O263        O  0.33107800  0.18424553  0.54733239    -0.77690
C264        C  0.17832021  0.13002841  0.56061528     1.03210
C265        C  0.07818281  0.07538226  0.78783917     0.03380
C266        C  0.09814375  0.07863893  0.74903586    -0.12770
C267        C  0.07633136  0.06878120  0.71088050     0.00880
C268        C  0.03345912  0.05250766  0.71126508    -0.11290
C269        C  0.51271473  0.04729826  0.74965121     0.03370
C270        C  0.03509487  0.05962607  0.78760983    -0.10710
H271        H  0.13122700  0.09053440  0.74789910     0.08970
H272        H  0.51649297  0.04523952  0.68173676     0.06500
H273        H  0.51877331  0.05797575  0.81636491     0.06350
Fe274      Fe  0.12375106  0.32518244  0.50124916     1.65780
Fe275      Fe  0.11008480  0.40713806  0.99970443     1.73250
Fe276      Fe  0.02593815  0.30936568  0.99825183     1.54410
O277        O  0.02920157  0.26997212  0.95561919    -0.81420
O278        O  0.07122342  0.40382265  0.54733150    -0.79730
O279        O  0.09543314  0.28789487  0.95040735    -0.83930
O280        O  0.08710414  0.27869231  0.54408639    -0.78780
O281        O  0.01910286  0.33904695  0.94696765    -0.80560
O282        O  0.15392155  0.41761123  0.54618294    -0.83300
C283        C  0.05233118  0.26617169  0.56198962     0.97460
C284        C  0.05803538  0.26708819  0.93831000     1.04900
O285        O  0.08660813  0.34730646  0.99972458    -1.12280
O286        O  0.15128933  0.41748832  0.95177465    -0.74720
O287        O  0.16587451  0.36829690  0.95865351    -0.78200
O288        O  0.02710679  0.27670029  0.54972347    -0.78890
C289        C  0.17132124  0.40070528  0.94088330     0.96370
O290        O  0.15557398  0.36021232  0.55231782    -0.76850
O291        O  0.06956645  0.40427220  0.95322157    -0.82040
C292        C  0.03433833  0.37739870  0.55817868     0.98990
C293        C  0.03751832  0.37614480  0.93469383     1.04910
O294        O  0.01370219  0.34269873  0.54077179    -0.77690
C295        C  0.16600248  0.39577373  0.56455459     1.03210
C296        C  0.45591954  0.45970169  0.74729379     0.03380
C297        C  0.46138453  0.44584539  0.70839543    -0.12770
C298        C  0.47690770  0.41948222  0.70689800     0.00880
C299        C  0.48583048  0.40620926  0.74490232    -0.11290
C300        C  0.48101375  0.42036232  0.78396094     0.03370
C301        C  0.46605947  0.44724345  0.78499121    -0.10710
H302        H  0.45384532  0.45590138  0.67935714     0.08970
H303        H  0.49864405  0.38651906  0.74402563     0.06500
H304        H  0.46227296  0.45842851  0.81500196     0.06350
C305        C  0.27268042  0.45788831  0.79023137     0.03380
C306        C  0.24998144  0.44838011  0.75250352    -0.12770
C307        C  0.26975212  0.45490059  0.71311026     0.00880
C308        C  0.31291561  0.97191193  0.71164841    -0.11290
C309        C  0.33574332  0.98136023  0.74933220     0.03370
C310        C  0.31559749  0.97420555  0.78844851    -0.10710
H311        H  0.21656095  0.43460719  0.75383782     0.08970
H312        H  0.32852257  0.97659784  0.68151155     0.06500
H313        H  0.33334071  0.98116315  0.81744599     0.06350
C314        C  0.01626452  0.16535270  0.79048365     0.03380
C315        C  0.02797908  0.18722642  0.75203889    -0.12770
C316        C  0.01531470  0.16685554  0.71318996     0.00880
C317        C  0.49190882  0.12395546  0.71308682    -0.11290
C318        C  0.48048346  0.10179282  0.75131909     0.03370
C319        C  0.49243541  0.12247014  0.78995801    -0.10710
H320        H  0.04586023  0.22039984  0.75243619     0.08970
H321        H  0.48073806  0.10776269  0.68351334     0.06500
H322        H  0.48254308  0.10522449  0.81943369     0.06350
C323        C  0.40871595  0.04078349  0.74991182     0.02540
C324        C  0.45187940  0.05693173  0.75078023     0.02540
C325        C  0.46743250  0.03041278  0.74983190     0.02540
C326        C  0.43972046  0.48770788  0.74834584     0.02540
C327        C  0.39647712  0.47159942  0.74771934     0.02540
C328        C  0.38099529  0.99816071  0.74829801     0.02540
C329        C  0.01610625  0.22317884  0.67198278    -0.21050
C330        C  0.02363068  0.19081487  0.67337441    -0.09100
C331        C  0.03921666  0.18228142  0.63696151     0.29760
C332        C  0.04868941  0.20691885  0.60063198    -0.21050
C333        C  0.04131246  0.23935955  0.59959084    -0.09110
C334        C  0.02450739  0.24700213  0.63545081     0.29770
F335        F  0.01782960  0.27864019  0.63581834    -0.19630
H336        H  0.00344699  0.22995263  0.69929627     0.18130
H337        H  0.06149256  0.20050257  0.57318914     0.18140
F338        F  0.54609468  0.15078527  0.63668004    -0.19620
C339        C  0.00639136  0.20778722  0.89472705    -0.21050
C340        C  0.04778650  0.23883212  0.90222061    -0.09100
C341        C  0.07894719  0.24332729  0.87403563     0.29760
C342        C  0.06853694  0.21832681  0.83861421    -0.21050
C343        C  0.02714204  0.18805283  0.83072850    -0.09110
C344        C  0.49614048  0.18242758  0.85950647     0.29770
F345        F  0.45572149  0.15378980  0.85247432    -0.19630
H346        H  0.48177697  0.20343908  0.91585863     0.18130
H347        H  0.09281640  0.22312349  0.81672892     0.18140
F348        F  0.11933352  0.27294343  0.87955143    -0.19620
C349        C  0.25464755  0.42141712  0.85984742    -0.21050
C350        C  0.25074460  0.44760127  0.83133173    -0.09100
C351        C  0.22353978  0.46123153  0.84096168     0.29760
C352        C  0.19913947  0.44719364  0.87757944    -0.21050
C353        C  0.20104568  0.41891747  0.90502132    -0.09110
C354        C  0.22987247  0.40686184  0.89622131     0.29770
F355        F  0.23366443  0.38044946  0.92219303    -0.19630
H356        H  0.27581086  0.41097367  0.85302188     0.18130
H357        H  0.17762284  0.45739893  0.88359450     0.18140
F358        F  0.22022472  0.98772102  0.81463729    -0.19620
C359        C  0.22546298  0.45263791  0.60417155    -0.21050
C360        C  0.19278586  0.41162808  0.60230317    -0.09100
C361        C  0.18626050  0.38519674  0.63666784     0.29760
C362        C  0.21157446  0.39966427  0.67230161    -0.21050
C363        C  0.24435572  0.44050104  0.67422100    -0.09110
C364        C  0.25155119  0.46687790  0.63961296     0.29770
F365        F  0.28324355  0.00642602  0.64040643    -0.19630
H366        H  0.23121172  0.47338652  0.57789627     0.18130
H367        H  0.20567878  0.37881736  0.69853571     0.18140
F368        F  0.15467152  0.34552291  0.63627890    -0.19620
C369        C  0.47757138  0.36761603  0.83417841    -0.21050
C370        C  0.49405972  0.40889105  0.82331483    -0.09100
C371        C  0.02477978  0.43918188  0.84899236     0.29760
C372        C  0.03817631  0.42843423  0.88547615    -0.21050
C373        C  0.02145718  0.38706448  0.89689050    -0.09110
C374        C  0.49073640  0.35663545  0.87071534     0.29770
F375        F  0.47409547  0.31622589  0.87957120    -0.19630
H376        H  0.45477243  0.34380073  0.81402919     0.18130
H377        H  0.06226203  0.45261685  0.90435160     0.18140
F378        F  0.04358972  0.47907521  0.83722123    -0.19620
C379        C  0.02627473  0.42789852  0.60014575    -0.21050
C380        C  0.01520330  0.38719092  0.59334250    -0.09100
C381        C  0.98797118  0.35660162  0.62206849     0.29760
C382        C  0.47473932  0.36713305  0.65844332    -0.21050
C383        C  0.48687647  0.40799978  0.66594157    -0.09110
C384        C  0.51163110  0.43816231  0.63566444     0.29770
F385        F  0.52347705  0.47788368  0.64148621    -0.19630
H386        H  0.04679124  0.45191738  0.57820005     0.18130
H387        H  0.45568537  0.34340636  0.68129257     0.18140
F388        F  0.97586894  0.31681294  0.61625488    -0.19620
C389        C  0.13843940  0.13695003  0.61964148    -0.21050
C390        C  0.14948004  0.11227793  0.59731228    -0.09100
C391        C  0.13464018  0.07192775  0.61213837     0.29760
C392        C  0.11012043  0.05732375  0.64881540    -0.21050
C393        C  0.09970885  0.08240045  0.67084223    -0.09110
C394        C  0.11417028  0.12230926  0.65619187     0.29770
F395        F  0.10620369  0.14769824  0.67845331    -0.19630
H396        H  0.14964644  0.16819493  0.60962295     0.18130
H397        H  0.10002756  0.02680748  0.66054140     0.18140
F398        F  0.14424978  0.04676275  0.59178984    -0.19620
C399        C  0.11344351  0.08616445  0.90312654    -0.21050
C400        C  0.15439234  0.11894526  0.89965131    -0.09100
C401        C  0.16955075  0.13848780  0.86051064     0.29760
C402        C  0.14422271  0.12474322  0.82489773    -0.21050
C403        C  0.10326323  0.09086608  0.82739633    -0.09110
C404        C  0.08774715  0.07244329  0.86754104     0.29770
F405        F  0.04812713  0.04104966  0.87289560    -0.19630
H406        H  0.10128631  0.07139228  0.93352948     0.18130
H407        H  0.15687267  0.14108975  0.79534061     0.18140
F408        F  0.20914651  0.17057769  0.85664433    -0.19620
C409        C  0.34040853  0.29792162  0.87498567    -0.21050
C410        C  0.30787105  0.29183462  0.90180366    -0.09100
C411        C  0.28538217  0.31096969  0.89141497     0.29760
C412        C  0.29494881  0.33493668  0.85460847    -0.21050
C413        C  0.32657357  0.33977459  0.82749278    -0.09110
C414        C  0.34938907  0.32132853  0.83794922     0.29770
F415        F  0.37979989  0.32537677  0.81173722    -0.19630
H416        H  0.35804301  0.28340496  0.88190207     0.18130
H417        H  0.27690478  0.34875615  0.84659939     0.18140
F418        F  0.25402101  0.30636337  0.91656747    -0.19620
C419        C  0.29523057  0.33488797  0.64332538    -0.21050
C420        C  0.32662763  0.33953959  0.67074186    -0.09100
C421        C  0.34883062  0.32029938  0.66153251     0.29760
C422        C  0.33934691  0.29615249  0.62556904    -0.21050
C423        C  0.30689764  0.29007738  0.59861391    -0.09110
C424        C  0.28509276  0.31007880  0.60765995     0.29770
F425        F  0.25397212  0.30566345  0.58219714    -0.19630
H426        H  0.27786281  0.34960561  0.65020497     0.18130
H427        H  0.35661140  0.28117395  0.61955728     0.18140
F428        F  0.37920162  0.32436941  0.68789743    -0.19620
C429        C  0.36706864  0.15715006  0.60913663    -0.21050
C430        C  0.32439986  0.13622129  0.59970394    -0.09100
C431        C  0.29627773  0.10472803  0.62728574     0.29760
C432        C  0.31058735  0.09529983  0.66384119    -0.21050
C433        C  0.35300178  0.11631443  0.67313592    -0.09110
C434        C  0.38134796  0.14698970  0.64542605     0.29770
F435        F  0.42257239  0.16764232  0.65402476    -0.19630
H436        H  0.38935484  0.18139188  0.58844806     0.18130
H437        H  0.28848083  0.07164034  0.68519009     0.18140
F438        F  0.25477888  0.08395961  0.61988286    -0.19620
C439        C  0.37159182  0.15963779  0.83790467    -0.21050
C440        C  0.35767970  0.11841260  0.83005340    -0.09100
C441        C  0.33108865  0.08830828  0.85941217     0.29760
C442        C  0.31728584  0.09925237  0.89507686    -0.21050
C443        C  0.33021717  0.14042031  0.90246300    -0.09110
C444        C  0.35834478  0.17071985  0.87390004     0.29770
F445        F  0.37150700  0.21083201  0.87951962    -0.19630
H446        H  0.39221267  0.18323086  0.81563632     0.18130
H447        H  0.29587818  0.07535174  0.91662231     0.18140
F448        F  0.31673612  0.04812856  0.85250366    -0.19620
C449        C  0.39247889  0.56863779  0.25044248     0.03380
C450        C  0.38491911  0.58133664  0.28907326    -0.12770
C451        C  0.36829691  0.60678659  0.28967833     0.00880
C452        C  0.35945818  0.61943752  0.25128839    -0.11290
C453        C  0.36680149  0.60660189  0.21267308     0.03370
C454        C  0.38354909  0.58138103  0.21227373    -0.10710
H455        H  0.39165754  0.57113415  0.31850121     0.08970
H456        H  0.34548521  0.63813488  0.25143561     0.06500
H457        H  0.38857327  0.57078692  0.18246633     0.06350
C458        C  0.33472223  0.86245826  0.28725998     0.03380
C459        C  0.32422789  0.84117733  0.24906048    -0.12770
C460        C  0.33480307  0.86241954  0.21031251     0.00880
C461        C  0.35631043  0.90528803  0.20981671    -0.11290
C462        C  0.36773920  0.92675469  0.24800949     0.03370
C463        C  0.35627422  0.90529230  0.28668683    -0.10710
H464        H  0.30856558  0.80804063  0.24948997     0.08970
H465        H  0.36606824  0.92189945  0.17996370     0.06500
H466        H  0.36599891  0.92191483  0.31615904     0.06350
Fe467      Fe  0.22606467  0.70488166  0.00016137     1.65780
Fe468      Fe  0.23701585  0.62111548  0.49890494     1.73250
Fe469      Fe  0.32326902  0.71800023  0.50052397     1.54420
O470        O  0.32284713  0.75595268  0.45360568    -0.81420
O471        O  0.27412463  0.62208157  0.04719187    -0.79730
O472        O  0.25964996  0.74725695  0.45337783    -0.83920
O473        O  0.25906412  0.74609830  0.04721363    -0.78780
O474        O  0.33261900  0.68706029  0.45295783    -0.80560
O475        O  0.19324578  0.61004018  0.04466145    -0.83300
C476        C  0.29532063  0.76188593  0.06237001     0.97460
C477        C  0.29623424  0.76366766  0.43871106     1.04900
O478        O  0.26212971  0.68133234  0.49983681    -1.12280
O479        O  0.19668153  0.61321011  0.45060058    -0.74720
O480        O  0.18873978  0.66716955  0.45273815    -0.78200
O481        O  0.32184301  0.75389635  0.04818793    -0.78890
C482        C  0.18120306  0.63371009  0.43683279     0.96370
O483        O  0.18803613  0.66533063  0.04711637    -0.76850
O484        O  0.27756236  0.62379914  0.45326428    -0.82040
C485        C  0.30914117  0.64817726  0.06234004     0.98990
C486        C  0.31258463  0.65104998  0.43850653     1.04910
O487        O  0.33107801  0.68424556  0.04733239    -0.77690
C488        C  0.17832021  0.63002842  0.06061528     1.03210
C489        C  0.07818281  0.57538228  0.28783916     0.03380
C490        C  0.09814374  0.57863896  0.24903585    -0.12770
C491        C  0.07633135  0.56878123  0.21088049     0.00880
C492        C  0.03345911  0.55250770  0.21126508    -0.11290
C493        C  0.51271471  0.54729827  0.24965121     0.03370
C494        C  0.03509487  0.55962610  0.28760982    -0.10710
H495        H  0.13122700  0.59053442  0.24789909     0.08970
H496        H  0.51649295  0.54523953  0.18173675     0.06500
H497        H  0.51877329  0.55797575  0.31636491     0.06350
Fe498      Fe  0.12375109  0.82518244  0.00124920     1.65780
Fe499      Fe  0.11008480  0.90713808  0.49970448     1.73250
Fe500      Fe  0.02593816  0.80936568  0.49825187     1.54410
O501        O  0.02920160  0.76997213  0.45561925    -0.81420
O502        O  0.07122345  0.90382264  0.04733155    -0.79730
O503        O  0.09543316  0.78789485  0.45040746    -0.83930
O504        O  0.08710419  0.77869232  0.04408645    -0.78780
O505        O  0.01910286  0.83904695  0.44696769    -0.80560
O506        O  0.15392158  0.91761124  0.04618296    -0.83300
C507        C  0.05233125  0.76617172  0.06198972     0.97460
C508        C  0.05803541  0.76708817  0.43831010     1.04900
O509        O  0.08660814  0.84730648  0.49972464    -1.12280
O510        O  0.15128934  0.91748834  0.45177470    -0.74720
O511        O  0.16587451  0.86829691  0.45865356    -0.78200
O512        O  0.02710685  0.77670033  0.04972358    -0.78890
C513        C  0.17132125  0.90070529  0.44088336     0.96370
O514        O  0.15557401  0.86021233  0.05231785    -0.76850
O515        O  0.06956645  0.90427220  0.45322162    -0.82040
C516        C  0.03433836  0.87739869  0.05817873     0.98990
C517        C  0.03751832  0.87614479  0.43469388     1.04910
O518        O  0.01370221  0.84269872  0.04077185    -0.77690
C519        C  0.16600251  0.89577374  0.06455462     1.03210
C520        C  0.45591952  0.95970166  0.24729382     0.03380
C521        C  0.46138451  0.94584536  0.20839547    -0.12770
C522        C  0.47690768  0.91948219  0.20689805     0.00880
C523        C  0.48583045  0.90620922  0.24490237    -0.11290
C524        C  0.48101371  0.92036228  0.28396100     0.03370
C525        C  0.46605944  0.94724342  0.28499125    -0.10710
H526        H  0.45384531  0.95590135  0.17935718     0.08970
H527        H  0.49864402  0.88651902  0.24402569     0.06500
H528        H  0.46227293  0.95842849  0.31500200     0.06350
C529        C  0.27268043  0.95788831  0.29023142     0.03380
C530        C  0.24998144  0.94838012  0.25250357    -0.12770
C531        C  0.26975211  0.95490061  0.21311030     0.00880
C532        C  0.31291559  0.47191188  0.21164838    -0.11290
C533        C  0.33574329  0.48136021  0.24933217     0.03370
C534        C  0.31559746  0.47420553  0.28844847    -0.10710
H535        H  0.21656095  0.93460721  0.25383787     0.08970
H536        H  0.32852255  0.47659780  0.18151152     0.06500
H537        H  0.33334068  0.48116314  0.31744596     0.06350
C538        C  0.01626457  0.66535267  0.29048376     0.03380
C539        C  0.02797919  0.68722643  0.25203903    -0.12770
C540        C  0.01531477  0.66685558  0.21319008     0.00880
C541        C  0.49190880  0.62395548  0.21308689    -0.11290
C542        C  0.48048343  0.60179282  0.25131914     0.03370
C543        C  0.49243538  0.62247011  0.28995807    -0.10710
H544        H  0.04586040  0.72039984  0.25243636     0.08970
H545        H  0.48073802  0.60776273  0.18351340     0.06500
H546        H  0.48254303  0.60522445  0.31943374     0.06350
C547        C  0.40871592  0.54078348  0.24991182     0.02540
C548        C  0.45187937  0.55693172  0.25078025     0.02540
C549        C  0.46743248  0.53041278  0.24983190     0.02540
C550        C  0.43972045  0.98770786  0.24834586     0.02540
C551        C  0.39647712  0.97159941  0.24771936     0.02540
C552        C  0.38099527  0.49816070  0.24829799     0.02540
C553        C  0.01610659  0.72317907  0.17198298    -0.21050
C554        C  0.02363079  0.69081495  0.17337453    -0.09100
C555        C  0.03921656  0.68228136  0.13696156     0.29760
C556        C  0.04868930  0.70691878  0.10063202    -0.21050
C557        C  0.04131257  0.73935963  0.09959096    -0.09110
C558        C  0.02450774  0.74700237  0.13545100     0.29770
F559        F  0.01783019  0.77864059  0.13581861    -0.19630
H560        H  0.00344749  0.72995298  0.19929652     0.18130
H561        H  0.06149228  0.70050239  0.07318912     0.18140
F562        F  0.54609450  0.65078517  0.13668005    -0.19620
C563        C  0.00639134  0.70778734  0.39472702    -0.21050
C564        C  0.04778652  0.73883206  0.40222073    -0.09100
C565        C  0.07894725  0.74332704  0.37403592     0.29760
C566        C  0.06853700  0.71832656  0.33861450    -0.21050
C567        C  0.02714207  0.68805277  0.33072863    -0.09110
C568        C  0.49614047  0.68242761  0.35950650     0.29770
F569        F  0.45572146  0.65378991  0.35247429    -0.19630
H570        H  0.48177695  0.70343918  0.41585861     0.18130
H571        H  0.09281650  0.72312310  0.31672932     0.18140
F572        F  0.11933363  0.77294297  0.37955188    -0.19620
C573        C  0.25464754  0.92141711  0.35984747    -0.21050
C574        C  0.25074460  0.94760128  0.33133177    -0.09100
C575        C  0.22353979  0.96123154  0.34096174     0.29760
C576        C  0.19913948  0.94719365  0.37757949    -0.21050
C577        C  0.20104569  0.91891748  0.40502137    -0.09110
C578        C  0.22987246  0.90686184  0.39622136     0.29770
F579        F  0.23366441  0.88044944  0.42219307    -0.19630
H580        H  0.27581085  0.91097366  0.35302191     0.18130
H581        H  0.17762286  0.95739895  0.38359456     0.18140
F582        F  0.22022468  0.48772097  0.31463723    -0.19620
C583        C  0.22546301  0.95263792  0.10417158    -0.21050
C584        C  0.19278588  0.91162809  0.10230320    -0.09100
C585        C  0.18626050  0.88519676  0.13666789     0.29760
C586        C  0.21157444  0.89966429  0.17230167    -0.21050
C587        C  0.24435572  0.94050106  0.17422104    -0.09110
C588        C  0.25155121  0.96687791  0.13961299     0.29770
F589        F  0.28324351  0.50642596  0.14040639    -0.19630
H590        H  0.23121176  0.97338653  0.07789629     0.18130
H591        H  0.20567875  0.87881738  0.19853576     0.18140
F592        F  0.15467150  0.84552294  0.13627895    -0.19620
C593        C  0.47757134  0.86761599  0.33417847    -0.21050
C594        C  0.49405968  0.90889102  0.32331488    -0.09100
C595        C  0.02477976  0.93918188  0.34899242     0.29760
C596        C  0.03817629  0.92843422  0.38547621    -0.21050
C597        C  0.02145718  0.88706448  0.39689054    -0.09110
C598        C  0.49073637  0.85663542  0.37071539     0.29770
F599        F  0.47409544  0.81622585  0.37957126    -0.19630
H600        H  0.45477239  0.84380069  0.31402926     0.18130
H601        H  0.06226200  0.95261684  0.40435166     0.18140
F602        F  0.04358968  0.97907521  0.33722130    -0.19620
C603        C  0.02627473  0.92789850  0.10014579    -0.21050
C604        C  0.01520334  0.88719091  0.09334257    -0.09100
C605        C  0.98797125  0.85660161  0.12206858     0.29760
C606        C  0.47473933  0.86713302  0.15844338    -0.21050
C607        C  0.48687646  0.90799975  0.16594162    -0.09110
C608        C  0.51163108  0.93816228  0.13566449     0.29770
F609        F  0.52347702  0.97788365  0.14148626    -0.19630
H610        H  0.04679121  0.95191735  0.07820007     0.18130
H611        H  0.45568539  0.84340633  0.18129263     0.18140
F612        F  0.97586907  0.81681294  0.11625501    -0.19620
C613        C  0.13843932  0.63695000  0.11964141    -0.21050
C614        C  0.14948004  0.61227793  0.09731228    -0.09100
C615        C  0.13464024  0.57192778  0.11213842     0.29760
C616        C  0.11012048  0.55732380  0.14881545    -0.21050
C617        C  0.09970884  0.58240047  0.17084222    -0.09110
C618        C  0.11417018  0.62230925  0.15619179     0.29770
F619        F  0.10620352  0.64769820  0.17845318    -0.19630
H620        H  0.14964630  0.66819489  0.10962283     0.18130
H621        H  0.10002766  0.52680755  0.16054149     0.18140
F622        F  0.14424992  0.54676281  0.09178996    -0.19620
C623        C  0.11344349  0.58616446  0.40312655    -0.21050
C624        C  0.15439233  0.61894525  0.39965132    -0.09100
C625        C  0.16955076  0.63848779  0.36051065     0.29760
C626        C  0.14422272  0.62474321  0.32489773    -0.21050
C627        C  0.10326323  0.59086610  0.32739633    -0.09110
C628        C  0.08774714  0.57244331  0.36754104     0.29770
F629        F  0.04812710  0.54104970  0.37289560    -0.19630
H630        H  0.10128628  0.57139230  0.43352949     0.18130
H631        H  0.15687269  0.64108974  0.29534061     0.18140
F632        F  0.20914652  0.67057766  0.35664435    -0.19620
C633        C  0.34040849  0.79792160  0.37498567    -0.21050
C634        C  0.30787101  0.79183460  0.40180366    -0.09100
C635        C  0.28538213  0.81096967  0.39141497     0.29760
C636        C  0.29494876  0.83493665  0.35460847    -0.21050
C637        C  0.32657353  0.83977457  0.32749277    -0.09110
C638        C  0.34938903  0.82132851  0.33794922     0.29770
F639        F  0.37979985  0.82537676  0.31173722    -0.19630
H640        H  0.35804298  0.78340494  0.38190207     0.18130
H641        H  0.27690474  0.84875612  0.34659938     0.18140
F642        F  0.25402097  0.80636335  0.41656747    -0.19620
C643        C  0.29523056  0.83488797  0.14332537    -0.21050
C644        C  0.32662762  0.83953960  0.17074186    -0.09100
C645        C  0.34883062  0.82029939  0.16153251     0.29760
C646        C  0.33934690  0.79615250  0.12556903    -0.21050
C647        C  0.30689764  0.79007739  0.09861390    -0.09110
C648        C  0.28509276  0.81007881  0.10765995     0.29770
F649        F  0.25397212  0.80566346  0.08219713    -0.19630
H650        H  0.27786280  0.84960561  0.15020497     0.18130
H651        H  0.35661139  0.78117396  0.11955727     0.18140
F652        F  0.37920162  0.82436942  0.18789743    -0.19620
C653        C  0.36706865  0.65715015  0.10913668    -0.21050
C654        C  0.32439989  0.63622132  0.09970395    -0.09100
C655        C  0.29627777  0.60472799  0.12728569     0.29760
C656        C  0.31058738  0.59529980  0.16384114    -0.21050
C657        C  0.35300181  0.61631446  0.17313592    -0.09110
C658        C  0.38134798  0.64698980  0.14542610     0.29770
F659        F  0.42257240  0.66764248  0.15402486    -0.19630
H660        H  0.38935485  0.68139202  0.08844815     0.18130
H661        H  0.28848087  0.57164026  0.18519001     0.18140
F662        F  0.25477892  0.58395952  0.11988277    -0.19620
C663        C  0.37159181  0.65963780  0.33790468    -0.21050
C664        C  0.35767969  0.61841261  0.33005341    -0.09100
C665        C  0.33108863  0.58830829  0.35941216     0.29760
C666        C  0.31728582  0.59925238  0.39507686    -0.21050
C667        C  0.33021716  0.64042032  0.40246300    -0.09110
C668        C  0.35834477  0.67071986  0.37390005     0.29770
F669        F  0.37150700  0.71083202  0.37951963    -0.19630
H670        H  0.39221266  0.68323087  0.31563632     0.18130
H671        H  0.29587816  0.57535175  0.41662231     0.18140
F672        F  0.31673609  0.54812857  0.35250366    -0.19620
C673        C  0.39247892  0.56863782  0.75044247     0.03380
C674        C  0.38491914  0.58133667  0.78907326    -0.12770
C675        C  0.36829694  0.60678661  0.78967832     0.00880
C676        C  0.35945821  0.61943755  0.75128839    -0.11290
C677        C  0.36680152  0.60660193  0.71267308     0.03370
C678        C  0.38354912  0.58138107  0.71227373    -0.10710
H679        H  0.39165756  0.57113417  0.81850121     0.08970
H680        H  0.34548524  0.63813491  0.75143561     0.06500
H681        H  0.38857331  0.57078696  0.68246632     0.06350
C682        C  0.33472223  0.86245825  0.78725999     0.03380
C683        C  0.32422789  0.84117732  0.74906048    -0.12770
C684        C  0.33480307  0.86241954  0.71031251     0.00880
C685        C  0.35631042  0.90528802  0.70981672    -0.11290
C686        C  0.36773920  0.92675468  0.74800949     0.03370
C687        C  0.35627422  0.90529229  0.78668683    -0.10710
H688        H  0.30856558  0.80804062  0.74948997     0.08970
H689        H  0.36606823  0.92189944  0.67996370     0.06500
H690        H  0.36599891  0.92191482  0.81615904     0.06350
Fe691      Fe  0.22606467  0.70488165  0.50016137     1.65780
Fe692      Fe  0.23701584  0.62111548  0.99890494     1.73250
Fe693      Fe  0.32326902  0.71800023  0.00052398     1.54420
O694        O  0.32284714  0.75595268  0.95360569    -0.81420
O695        O  0.27412464  0.62208158  0.54719187    -0.79730
O696        O  0.25964997  0.74725695  0.95337783    -0.83920
O697        O  0.25906411  0.74609829  0.54721363    -0.78780
O698        O  0.33261900  0.68706029  0.95295783    -0.80560
O699        O  0.19324579  0.61004019  0.54466146    -0.83300
C700        C  0.29532062  0.76188593  0.56237000     0.97460
C701        C  0.29623425  0.76366767  0.93871106     1.04900
O702        O  0.26212971  0.68133234  0.99983681    -1.12280
O703        O  0.19668154  0.61321012  0.95060057    -0.74720
O704        O  0.18873978  0.66716955  0.95273815    -0.78200
O705        O  0.32184301  0.75389636  0.54818791    -0.78890
C706        C  0.18120306  0.63371010  0.93683279     0.96370
O707        O  0.18803613  0.66533062  0.54711636    -0.76850
O708        O  0.27756236  0.62379914  0.95326428    -0.82040
C709        C  0.30914118  0.64817728  0.56234004     0.98990
C710        C  0.31258463  0.65104998  0.93850653     1.04910
O711        O  0.33107801  0.68424558  0.54733239    -0.77690
C712        C  0.17832022  0.63002842  0.56061529     1.03210
C713        C  0.07818281  0.57538228  0.78783917     0.03380
C714        C  0.09814374  0.57863896  0.74903586    -0.12770
C715        C  0.07633135  0.56878123  0.71088050     0.00880
C716        C  0.03345912  0.55250771  0.71126508    -0.11290
C717        C  0.51271473  0.54729829  0.74965121     0.03370
C718        C  0.03509487  0.55962610  0.78760983    -0.10710
H719        H  0.13122700  0.59053442  0.74789910     0.08970
H720        H  0.51649298  0.54523956  0.68173676     0.06500
H721        H  0.51877331  0.55797577  0.81636492     0.06350
Fe722      Fe  0.12375109  0.82518246  0.50124920     1.65780
Fe723      Fe  0.11008480  0.90713806  0.99970447     1.73250
Fe724      Fe  0.02593817  0.80936567  0.99825190     1.54410
O725        O  0.02920159  0.76997211  0.95561928    -0.81420
O726        O  0.07122343  0.90382264  0.54733155    -0.79730
O727        O  0.09543316  0.78789485  0.95040745    -0.83930
O728        O  0.08710419  0.77869233  0.54408645    -0.78780
O729        O  0.01910286  0.83904692  0.94696771    -0.80560
O730        O  0.15392157  0.91761125  0.54618297    -0.83300
C731        C  0.05233124  0.76617173  0.56198970     0.97460
C732        C  0.05803540  0.76708816  0.93831011     1.04900
O733        O  0.08660815  0.84730647  0.99972465    -1.12280
O734        O  0.15128933  0.91748832  0.95177469    -0.74720
O735        O  0.16587452  0.86829690  0.95865357    -0.78200
O736        O  0.02710684  0.77670032  0.54972355    -0.78890
C737        C  0.17132125  0.90070527  0.94088335     0.96370
O738        O  0.15557401  0.86021235  0.55231785    -0.76850
O739        O  0.06956645  0.90427218  0.95322162    -0.82040
C740        C  0.03433834  0.87739869  0.55817872     0.98990
C741        C  0.03751832  0.87614477  0.93469389     1.04910
O742        O  0.01370220  0.84269872  0.54077182    -0.77690
C743        C  0.16600250  0.89577375  0.56455462     1.03210
C744        C  0.45591952  0.95970165  0.74729383     0.03380
C745        C  0.46138451  0.94584535  0.70839547    -0.12770
C746        C  0.47690768  0.91948217  0.70689805     0.00880
C747        C  0.48583045  0.90620921  0.74490237    -0.11290
C748        C  0.48101371  0.92036227  0.78396100     0.03370
C749        C  0.46605944  0.94724341  0.78499125    -0.10710
H750        H  0.45384530  0.95590134  0.67935718     0.08970
H751        H  0.49864402  0.88651901  0.74402569     0.06500
H752        H  0.46227293  0.95842847  0.81500200     0.06350
C753        C  0.27268043  0.95788830  0.79023142     0.03380
C754        C  0.24998145  0.94838012  0.75250357    -0.12770
C755        C  0.26975212  0.95490061  0.71311030     0.00880
C756        C  0.31291562  0.47191192  0.71164837    -0.11290
C757        C  0.33574332  0.48136024  0.74933217     0.03370
C758        C  0.31559748  0.47420556  0.78844847    -0.10710
H759        H  0.21656095  0.93460720  0.75383787     0.08970
H760        H  0.32852257  0.47659784  0.68151151     0.06500
H761        H  0.33334071  0.48116318  0.81744596     0.06350
C762        C  0.01626455  0.66535269  0.79048374     0.03380
C763        C  0.02797915  0.68722644  0.75203900    -0.12770
C764        C  0.01531474  0.66685559  0.71319006     0.00880
C765        C  0.49190883  0.62395550  0.71308689    -0.11290
C766        C  0.48048345  0.60179284  0.75131914     0.03370
C767        C  0.49243541  0.62247014  0.78995807    -0.10710
H768        H  0.04586035  0.72039986  0.75243633     0.08970
H769        H  0.48073805  0.60776275  0.68351340     0.06500
H770        H  0.48254306  0.60522447  0.81943374     0.06350
C771        C  0.40871595  0.54078351  0.74991182     0.02540
C772        C  0.45187940  0.55693175  0.75078025     0.02540
C773        C  0.46743250  0.53041281  0.74983190     0.02540
C774        C  0.43972045  0.98770785  0.74834587     0.02540
C775        C  0.39647712  0.97159940  0.74771937     0.02540
C776        C  0.38099529  0.49816073  0.74829798     0.02540
C777        C  0.01610652  0.72317905  0.67198295    -0.21050
C778        C  0.02363076  0.69081495  0.67337451    -0.09100
C779        C  0.03921655  0.68228138  0.63696155     0.29760
C780        C  0.04868930  0.70691880  0.60063201    -0.21050
C781        C  0.04131254  0.73935962  0.59959093    -0.09110
C782        C  0.02450767  0.74700235  0.63545097     0.29770
F783        F  0.01783009  0.77864054  0.63581856    -0.19630
H784        H  0.00344739  0.72995294  0.69929648     0.18130
H785        H  0.06149231  0.70050242  0.57318912     0.18140
F786        F  0.54609448  0.65078516  0.63668003    -0.19620
C787        C  0.00639135  0.70778729  0.89472706    -0.21050
C788        C  0.04778652  0.73883207  0.90222073    -0.09100
C789        C  0.07894724  0.74332711  0.87403586     0.29760
C790        C  0.06853698  0.71832664  0.83861443    -0.21050
C791        C  0.02714206  0.68805279  0.83072861    -0.09110
C792        C  0.49614048  0.68242764  0.85950649     0.29770
F793        F  0.45572148  0.65378995  0.85247425    -0.19630
H794        H  0.48177695  0.70343921  0.91585858     0.18130
H795        H  0.09281647  0.72312322  0.81672922     0.18140
F796        F  0.11933360  0.77294310  0.87955178    -0.19620
C797        C  0.25464754  0.92141710  0.85984746    -0.21050
C798        C  0.25074460  0.94760126  0.83133177    -0.09100
C799        C  0.22353979  0.96123152  0.84096174     0.29760
C800        C  0.19913948  0.94719363  0.87757949    -0.21050
C801        C  0.20104569  0.91891746  0.90502137    -0.09110
C802        C  0.22987246  0.90686182  0.89622135     0.29770
F803        F  0.23366441  0.88044943  0.92219306    -0.19630
H804        H  0.27581085  0.91097365  0.85302191     0.18130
H805        H  0.17762286  0.95739894  0.88359456     0.18140
F806        F  0.22022470  0.48772101  0.81463723    -0.19620
C807        C  0.22546300  0.95263793  0.60417158    -0.21050
C808        C  0.19278588  0.91162810  0.60230320    -0.09100
C809        C  0.18626050  0.88519677  0.63666789     0.29760
C810        C  0.21157445  0.89966429  0.67230166    -0.21050
C811        C  0.24435572  0.94050106  0.67422104    -0.09110
C812        C  0.25155121  0.96687792  0.63961300     0.29770
F813        F  0.28324353  0.50642600  0.64040639    -0.19630
H814        H  0.23121175  0.97338655  0.57789630     0.18130
H815        H  0.20567876  0.87881738  0.69853575     0.18140
F816        F  0.15467150  0.84552294  0.63627894    -0.19620
C817        C  0.47757135  0.86761598  0.83417846    -0.21050
C818        C  0.49405968  0.90889101  0.82331488    -0.09100
C819        C  0.02477976  0.93918184  0.84899240     0.29760
C820        C  0.03817630  0.92843419  0.88547619    -0.21050
C821        C  0.02145716  0.88706445  0.89689055    -0.09110
C822        C  0.49073637  0.85663541  0.87071539     0.29770
F823        F  0.47409545  0.81622584  0.87957125    -0.19630
H824        H  0.45477240  0.84380068  0.81402925     0.18130
H825        H  0.06226203  0.95261681  0.90435163     0.18140
F826        F  0.04358970  0.97907516  0.83722126    -0.19620
C827        C  0.02627469  0.92789847  0.60014579    -0.21050
C828        C  0.01520331  0.88719089  0.59334255    -0.09100
C829        C  0.98797122  0.85660159  0.62206856     0.29760
C830        C  0.47473934  0.86713301  0.65844339    -0.21050
C831        C  0.48687646  0.90799974  0.66594162    -0.09110
C832        C  0.51163106  0.93816227  0.63566448     0.29770
F833        F  0.52347697  0.97788363  0.64148623    -0.19630
H834        H  0.04679117  0.95191734  0.57820007     0.18130
H835        H  0.45568541  0.84340633  0.68129264     0.18140
F836        F  0.97586903  0.81681291  0.61625497    -0.19620
C837        C  0.13843931  0.63695000  0.61964140    -0.21050
C838        C  0.14948005  0.61227793  0.59731229    -0.09100
C839        C  0.13464027  0.57192779  0.61213845     0.29760
C840        C  0.11012051  0.55732381  0.64881548    -0.21050
C841        C  0.09970884  0.58240047  0.67084222    -0.09110
C842        C  0.11417017  0.62230924  0.65619179     0.29770
F843        F  0.10620350  0.64769819  0.67845317    -0.19630
H844        H  0.14964628  0.66819488  0.60962281     0.18130
H845        H  0.10002771  0.52680756  0.66054153     0.18140
F846        F  0.14424997  0.54676283  0.59179000    -0.19620
C847        C  0.11344349  0.58616446  0.90312655    -0.21050
C848        C  0.15439233  0.61894526  0.89965132    -0.09100
C849        C  0.16955075  0.63848780  0.86051065     0.29760
C850        C  0.14422271  0.62474322  0.82489774    -0.21050
C851        C  0.10326323  0.59086610  0.82739633    -0.09110
C852        C  0.08774714  0.57244331  0.86754105     0.29770
F853        F  0.04812711  0.54104969  0.87289561    -0.19630
H854        H  0.10128629  0.57139230  0.93352949     0.18130
H855        H  0.15687268  0.64108976  0.79534062     0.18140
F856        F  0.20914651  0.67057768  0.85664435    -0.19620
C857        C  0.34040850  0.79792160  0.87498568    -0.21050
C858        C  0.30787102  0.79183460  0.90180367    -0.09100
C859        C  0.28538214  0.81096967  0.89141498     0.29760
C860        C  0.29494877  0.83493665  0.85460847    -0.21050
C861        C  0.32657353  0.83977456  0.82749278    -0.09110
C862        C  0.34938904  0.82132850  0.83794922     0.29770
F863        F  0.37979986  0.82537675  0.81173723    -0.19630
H864        H  0.35804299  0.78340494  0.88190208     0.18130
H865        H  0.27690475  0.84875612  0.84659939     0.18140
F866        F  0.25402099  0.80636335  0.91656747    -0.19620
C867        C  0.29523053  0.83488794  0.64332539    -0.21050
C868        C  0.32662762  0.83953959  0.67074186    -0.09100
C869        C  0.34883063  0.82029941  0.66153249     0.29760
C870        C  0.33934692  0.79615252  0.62556901    -0.21050
C871        C  0.30689763  0.79007739  0.59861390    -0.09110
C872        C  0.28509273  0.81007879  0.60765997     0.29770
F873        F  0.25397207  0.80566341  0.58219717    -0.19630
H874        H  0.27786275  0.84960556  0.65020500     0.18130
H875        H  0.35661142  0.78117400  0.61955723     0.18140
F876        F  0.37920165  0.82436946  0.68789739    -0.19620
C877        C  0.36706867  0.65715018  0.60913668    -0.21050
C878        C  0.32439991  0.63622135  0.59970394    -0.09100
C879        C  0.29627779  0.60472802  0.62728569     0.29760
C880        C  0.31058741  0.59529983  0.66384114    -0.21050
C881        C  0.35300184  0.61631450  0.67313592    -0.09110
C882        C  0.38134800  0.64698984  0.64542610     0.29770
F883        F  0.42257243  0.66764253  0.65402486    -0.19630
H884        H  0.38935486  0.68139206  0.58844815     0.18130
H885        H  0.28848091  0.57164029  0.68519001     0.18140
F886        F  0.25477895  0.58395953  0.61988277    -0.19620
C887        C  0.37159182  0.65963782  0.83790468    -0.21050
C888        C  0.35767970  0.61841263  0.83005340    -0.09100
C889        C  0.33108865  0.58830831  0.85941216     0.29760
C890        C  0.31728583  0.59925239  0.89507685    -0.21050
C891        C  0.33021717  0.64042032  0.90246300    -0.09110
C892        C  0.35834477  0.67071987  0.87390005     0.29770
F893        F  0.37150700  0.71083203  0.87951964    -0.19630
H894        H  0.39221267  0.68323089  0.81563633     0.18130
H895        H  0.29587817  0.57535175  0.91662230     0.18140
F896        F  0.31673611  0.54812859  0.85250365    -0.19620
C897        C  0.89247892  0.06863783  0.25044247     0.03380
C898        C  0.88491914  0.08133667  0.28907326    -0.12770
C899        C  0.86829694  0.10678661  0.28967833     0.00880
C900        C  0.85945821  0.11943755  0.25128839    -0.11290
C901        C  0.86680153  0.10660194  0.21267308     0.03370
C902        C  0.88354913  0.08138108  0.21227373    -0.10710
H903        H  0.89165756  0.07113416  0.31850121     0.08970
H904        H  0.84548523  0.13813490  0.25143561     0.06500
H905        H  0.88857332  0.07078697  0.18246632     0.06350
C906        C  0.83472226  0.36245826  0.28725999     0.03380
C907        C  0.82422792  0.34117732  0.24906049    -0.12770
C908        C  0.83480308  0.36241953  0.21031251     0.00880
C909        C  0.85631043  0.40528802  0.20981671    -0.11290
C910        C  0.86773920  0.42675468  0.24800948     0.03370
C911        C  0.85627424  0.40529230  0.28668682    -0.10710
H912        H  0.80856562  0.30804062  0.24948998     0.08970
H913        H  0.86606823  0.42189943  0.17996369     0.06500
H914        H  0.86599893  0.42191483  0.31615903     0.06350
Fe915      Fe  0.72606469  0.20488166  0.00016136     1.65780
Fe916      Fe  0.73701582  0.12111547  0.49890493     1.73250
Fe917      Fe  0.82326901  0.21800021  0.50052399     1.54420
O918        O  0.82284714  0.25595269  0.45360571    -0.81420
O919        O  0.77412466  0.12208159  0.04719186    -0.79730
O920        O  0.75964997  0.24725694  0.45337782    -0.83920
O921        O  0.75906413  0.24609829  0.04721363    -0.78780
O922        O  0.83261898  0.18706028  0.45295783    -0.80560
O923        O  0.69324581  0.11004019  0.04466145    -0.83300
C924        C  0.79532064  0.26188593  0.06237000     0.97460
C925        C  0.79623425  0.26366766  0.43871107     1.04900
O926        O  0.76212969  0.18133233  0.49983680    -1.12280
O927        O  0.69668154  0.11321013  0.45060054    -0.74720
O928        O  0.68873977  0.16716955  0.45273815    -0.78200
O929        O  0.82184303  0.25389636  0.04818790    -0.78890
C930        C  0.68120306  0.13371010  0.43683278     0.96370
O931        O  0.68803615  0.16533063  0.04711635    -0.76850
O932        O  0.77756235  0.12379913  0.45326428    -0.82040
C933        C  0.80914120  0.14817728  0.06234003     0.98990
C934        C  0.81258462  0.15104997  0.43850653     1.04910
O935        O  0.83107804  0.18424558  0.04733238    -0.77690
C936        C  0.67832023  0.13002842  0.06061527     1.03210
C937        C  0.57818282  0.07538229  0.28783914     0.03380
C938        C  0.59814375  0.07863896  0.24903584    -0.12770
C939        C  0.57633136  0.06878123  0.21088047     0.00880
C940        C  0.53345912  0.05250769  0.21126506    -0.11290
C941        C  0.01271473  0.04729829  0.24965120     0.03370
C942        C  0.53509488  0.05962610  0.28760980    -0.10710
H943        H  0.63122700  0.09053443  0.24789907     0.08970
H944        H  0.01649297  0.04523955  0.18173674     0.06500
H945        H  0.01877331  0.05797578  0.31636490     0.06350
Fe946      Fe  0.62375107  0.32518244  0.00124913     1.65780
Fe947      Fe  0.61008480  0.40713807  0.49970443     1.73250
Fe948      Fe  0.52593815  0.30936568  0.49825182     1.54410
O949        O  0.52920158  0.26997214  0.45561918    -0.81420
O950        O  0.57122344  0.40382264  0.04733151    -0.79730
O951        O  0.59543314  0.28789485  0.45040739    -0.83930
O952        O  0.58710415  0.27869229  0.04408636    -0.78780
O953        O  0.51910286  0.33904697  0.44696765    -0.80560
O954        O  0.65392156  0.41761122  0.04618293    -0.83300
C955        C  0.55233120  0.26617170  0.06198962     0.97460
C956        C  0.55803539  0.26708818  0.43831002     1.04900
O957        O  0.58660813  0.34730647  0.49972459    -1.12280
O958        O  0.65128934  0.41748833  0.45177466    -0.74720
O959        O  0.66587450  0.36829689  0.45865352    -0.78200
O960        O  0.52710681  0.27670031  0.04972349    -0.78890
C961        C  0.67132124  0.40070527  0.44088332     0.96370
O962        O  0.65557398  0.36021230  0.05231780    -0.76850
O963        O  0.56956646  0.40427222  0.45322157    -0.82040
C964        C  0.53433834  0.37739870  0.05817868     0.98990
C965        C  0.53751833  0.37614481  0.43469383     1.04910
O966        O  0.51370219  0.34269873  0.04077178    -0.77690
C967        C  0.66600249  0.39577371  0.06455458     1.03210
C968        C  0.95591953  0.45970168  0.24729378     0.03380
C969        C  0.96138452  0.44584537  0.20839542    -0.12770
C970        C  0.97690770  0.41948221  0.20689800     0.00880
C971        C  0.98583049  0.40620926  0.24490231    -0.11290
C972        C  0.98101376  0.42036232  0.28396094     0.03370
C973        C  0.96605947  0.44724344  0.28499120    -0.10710
H974        H  0.95384530  0.45590136  0.17935714     0.08970
H975        H  0.99864407  0.38651907  0.24402563     0.06500
H976        H  0.96227296  0.45842851  0.31500195     0.06350
C977        C  0.77268041  0.45788827  0.29023137     0.03380
C978        C  0.74998143  0.44838007  0.25250352    -0.12770
C979        C  0.76975210  0.45490056  0.21311026     0.00880
C980        C  0.81291562  0.97191194  0.21164841    -0.11290
C981        C  0.83574332  0.98136025  0.24933220     0.03370
C982        C  0.81559749  0.97420557  0.28844850    -0.10710
H983        H  0.71656093  0.43460714  0.25383782     0.08970
H984        H  0.82852257  0.97659786  0.18151155     0.06500
H985        H  0.83334071  0.98116317  0.31744599     0.06350
C986        C  0.51626456  0.16535270  0.29048367     0.03380
C987        C  0.52797916  0.18722644  0.25203892    -0.12770
C988        C  0.51531475  0.16685557  0.21318998     0.00880
C989        C  0.99190883  0.12395549  0.21308683    -0.11290
C990        C  0.98048346  0.10179284  0.25131909     0.03370
C991        C  0.99243542  0.12247015  0.28995801    -0.10710
H992        H  0.54586035  0.22039985  0.25243623     0.08970
H993        H  0.98073805  0.10776273  0.18351335     0.06500
H994        H  0.98254307  0.10522450  0.31943369     0.06350
C995        C  0.90871595  0.04078352  0.24991182     0.02540
C996        C  0.95187940  0.05693175  0.25078022     0.02540
C997        C  0.96743250  0.03041280  0.24983189     0.02540
C998        C  0.93972045  0.48770786  0.24834583     0.02540
C999        C  0.89647711  0.47159940  0.24771934     0.02540
C1000       C  0.88099529  0.99816073  0.24829800     0.02540
C1001       C  0.51610647  0.22317899  0.17198286    -0.21050
C1002       C  0.52363075  0.19081492  0.17337443    -0.09100
C1003       C  0.53921656  0.18228137  0.13696148     0.29760
C1004       C  0.54868931  0.20691878  0.10063194    -0.21050
C1005       C  0.54131251  0.23935959  0.09959085    -0.09110
C1006       C  0.52450761  0.24700228  0.13545088     0.29770
F1007       F  0.51782999  0.27864045  0.13581846    -0.19630
H1008       H  0.50344733  0.22995287  0.19929638     0.18130
H1009       H  0.56149234  0.20050242  0.07318906     0.18140
F1010       F  0.04609447  0.15078513  0.13667995    -0.19620
C1011       C  0.50639135  0.20778731  0.39472698    -0.21050
C1012       C  0.54778651  0.23883210  0.40222064    -0.09100
C1013       C  0.57894723  0.24332716  0.37403576     0.29760
C1014       C  0.56853698  0.21832669  0.33861433    -0.21050
C1015       C  0.52714206  0.18805282  0.33072853    -0.09110
C1016       C  0.99614048  0.18242767  0.35950640     0.29770
F1017       F  0.95572148  0.15378998  0.35247416    -0.19630
H1018       H  0.98177694  0.20343925  0.41585849     0.18130
H1019       H  0.59281647  0.22312329  0.31672912     0.18140
F1020       F  0.61933359  0.27294318  0.37955166    -0.19620
C1021       C  0.75464753  0.42141709  0.35984743    -0.21050
C1022       C  0.75074458  0.44760124  0.33133173    -0.09100
C1023       C  0.72353977  0.46123150  0.34096169     0.29760
C1024       C  0.69913947  0.44719362  0.37757945    -0.21050
C1025       C  0.70104568  0.41891745  0.40502133    -0.09110
C1026       C  0.72987246  0.40686182  0.39622132     0.29770
F1027       F  0.73366442  0.38044943  0.42219304    -0.19630
H1028       H  0.77581084  0.41097364  0.35302188     0.18130
H1029       H  0.67762284  0.45739892  0.38359451     0.18140
F1030       F  0.72022473  0.98772104  0.31463729    -0.19620
C1031       C  0.72546298  0.45263788  0.10417155    -0.21050
C1032       C  0.69278587  0.41162805  0.10230316    -0.09100
C1033       C  0.68626050  0.38519671  0.13666783     0.29760
C1034       C  0.71157445  0.39966424  0.17230160    -0.21050
C1035       C  0.74435571  0.44050101  0.17422099    -0.09110
C1036       C  0.75155119  0.46687787  0.13961296     0.29770
F1037       F  0.78324355  0.00642602  0.14040641    -0.19630
H1038       H  0.73121172  0.47338650  0.07789627     0.18130
H1039       H  0.70567877  0.37881732  0.19853569     0.18140
F1040       F  0.65467152  0.34552288  0.13627888    -0.19620
C1041       C  0.97757140  0.36761604  0.33417840    -0.21050
C1042       C  0.99405973  0.40889106  0.32331482    -0.09100
C1043       C  0.52477980  0.43918189  0.34899234     0.29760
C1044       C  0.53817633  0.42843424  0.38547614    -0.21050
C1045       C  0.52145720  0.38706450  0.39689049    -0.09110
C1046       C  0.99073641  0.35663547  0.37071533     0.29770
F1047       F  0.97409548  0.31622590  0.37957120    -0.19630
H1048       H  0.95477244  0.34380074  0.31402919     0.18130
H1049       H  0.56226206  0.45261686  0.40435158     0.18140
F1050       F  0.54358974  0.47907522  0.33722120    -0.19620
C1051       C  0.52627471  0.42789850  0.10014574    -0.21050
C1052       C  0.51520331  0.38719091  0.09334251    -0.09100
C1053       C  0.48797121  0.35660161  0.12206851     0.29760
C1054       C  0.97473935  0.36713304  0.15844334    -0.21050
C1055       C  0.98687647  0.40799977  0.16594157    -0.09110
C1056       C  0.01163107  0.43816230  0.13566442     0.29770
F1057       F  0.02347699  0.47788366  0.14148617    -0.19630
H1058       H  0.54679121  0.45191736  0.07820003     0.18130
H1059       H  0.95568542  0.34340636  0.18129260     0.18140
F1060       F  0.47586902  0.31681294  0.11625493    -0.19620
C1061       C  0.63843933  0.13695000  0.11964140    -0.21050
C1062       C  0.64948006  0.11227793  0.09731227    -0.09100
C1063       C  0.63464026  0.07192778  0.11213842     0.29760
C1064       C  0.61012050  0.05732380  0.14881544    -0.21050
C1065       C  0.59970885  0.08240046  0.17084220    -0.09110
C1066       C  0.61417020  0.12230924  0.15619178     0.29770
F1067       F  0.60620353  0.14769819  0.17845316    -0.19630
H1068       H  0.64964631  0.16819489  0.10962281     0.18130
H1069       H  0.60002768  0.02680755  0.16054148     0.18140
F1070       F  0.64424994  0.04676281  0.09178995    -0.19620
C1071       C  0.61344349  0.08616448  0.40312653    -0.21050
C1072       C  0.65439233  0.11894527  0.39965130    -0.09100
C1073       C  0.66955075  0.13848781  0.36051063     0.29760
C1074       C  0.64422271  0.12474323  0.32489771    -0.21050
C1075       C  0.60326323  0.09086611  0.32739631    -0.09110
C1076       C  0.58774714  0.07244332  0.36754102     0.29770
F1077       F  0.54812711  0.04104970  0.37289558    -0.19630
H1078       H  0.60128628  0.07139231  0.43352947     0.18130
H1079       H  0.65687269  0.14108976  0.29534059     0.18140
F1080       F  0.70914652  0.17057769  0.35664433    -0.19620
C1081       C  0.84040852  0.29792162  0.37498570    -0.21050
C1082       C  0.80787104  0.29183461  0.40180367    -0.09100
C1083       C  0.78538215  0.31096967  0.39141497     0.29760
C1084       C  0.79494879  0.33493665  0.35460847    -0.21050
C1085       C  0.82657356  0.33977457  0.32749278    -0.09110
C1086       C  0.84938907  0.32132853  0.33794924     0.29770
F1087       F  0.87979990  0.32537677  0.31173726    -0.19630
H1088       H  0.85804301  0.28340496  0.38190211     0.18130
H1089       H  0.77690476  0.34875612  0.34659937     0.18140
F1090       F  0.75402098  0.30636335  0.41656746    -0.19620
C1091       C  0.79523055  0.33488794  0.14332539    -0.21050
C1092       C  0.82662763  0.33953958  0.17074186    -0.09100
C1093       C  0.84883064  0.32029939  0.16153249     0.29760
C1094       C  0.83934693  0.29615251  0.12556901    -0.21050
C1095       C  0.80689765  0.29007739  0.09861390    -0.09110
C1096       C  0.78509275  0.31007878  0.10765997     0.29770
F1097       F  0.75397210  0.30566341  0.08219717    -0.19630
H1098       H  0.77786277  0.34960556  0.15020500     0.18130
H1099       H  0.85661144  0.28117399  0.11955724     0.18140
F1100       F  0.87920166  0.32436944  0.18789740    -0.19620
C1101       C  0.86706869  0.15715017  0.10913667    -0.21050
C1102       C  0.82439992  0.13622135  0.09970394    -0.09100
C1103       C  0.79627780  0.10472804  0.12728570     0.29760
C1104       C  0.81058742  0.09529985  0.16384115    -0.21050
C1105       C  0.85300185  0.11631450  0.17313592    -0.09110
C1106       C  0.88134802  0.14698983  0.14542609     0.29770
F1107       F  0.92257244  0.16764250  0.15402484    -0.19630
H1108       H  0.88935488  0.18139203  0.08844813     0.18130
H1109       H  0.78848091  0.07164032  0.18519003     0.18140
F1110       F  0.75477895  0.08395957  0.11988279    -0.19620
C1111       C  0.87159182  0.15963781  0.33790468    -0.21050
C1112       C  0.85767970  0.11841262  0.33005341    -0.09100
C1113       C  0.83108864  0.08830830  0.35941216     0.29760
C1114       C  0.81728582  0.09925238  0.39507685    -0.21050
C1115       C  0.83021716  0.14042032  0.40246300    -0.09110
C1116       C  0.85834476  0.17071986  0.37390005     0.29770
F1117       F  0.87150699  0.21083202  0.37951964    -0.19630
H1118       H  0.89221266  0.18323089  0.31563633     0.18130
H1119       H  0.79587816  0.07535174  0.41662230     0.18140
F1120       F  0.81673611  0.04812858  0.35250365    -0.19620
C1121       C  0.89247891  0.06863779  0.75044246     0.03380
C1122       C  0.88491914  0.08133664  0.78907325    -0.12770
C1123       C  0.86829692  0.10678657  0.78967832     0.00880
C1124       C  0.85945814  0.11943746  0.75128838    -0.11290
C1125       C  0.86680144  0.10660184  0.71267308     0.03370
C1126       C  0.88354908  0.08138101  0.71227372    -0.10710
H1127       H  0.89165759  0.07113417  0.81850120     0.08970
H1128       H  0.84548515  0.13813480  0.75143561     0.06500
H1129       H  0.88857327  0.07078689  0.68246632     0.06350
C1130       C  0.83472224  0.36245828  0.78725998     0.03380
C1131       C  0.82422789  0.34117733  0.74906048    -0.12770
C1132       C  0.83480306  0.36241954  0.71031250     0.00880
C1133       C  0.85631042  0.40528803  0.70981670    -0.11290
C1134       C  0.86773920  0.42675469  0.74800948     0.03370
C1135       C  0.85627423  0.40529231  0.78668682    -0.10710
H1136       H  0.80856559  0.30804064  0.74948997     0.08970
H1137       H  0.86606822  0.42189944  0.67996368     0.06500
H1138       H  0.86599893  0.42191484  0.81615902     0.06350
Fe1139     Fe  0.72606467  0.20488165  0.50016137     1.65780
Fe1140     Fe  0.73701587  0.12111549  0.99890493     1.73250
Fe1141     Fe  0.82326904  0.21800024  0.00052396     1.54420
O1142       O  0.82284716  0.25595269  0.95360567    -0.81420
O1143       O  0.77412458  0.12208155  0.54719188    -0.79730
O1144       O  0.75964999  0.24725696  0.95337783    -0.83920
O1145       O  0.75906411  0.24609830  0.54721362    -0.78780
O1146       O  0.83261902  0.18706029  0.95295782    -0.80560
O1147       O  0.69324574  0.11004017  0.54466142    -0.83300
C1148       C  0.79532061  0.26188592  0.56237001     0.97460
C1149       C  0.79623427  0.26366767  0.93871105     1.04900
O1150       O  0.76212973  0.18133234  0.99983680    -1.12280
O1151       O  0.69668156  0.11321012  0.95060056    -0.74720
O1152       O  0.68873981  0.16716956  0.95273813    -0.78200
O1153       O  0.82184299  0.25389632  0.54818794    -0.78890
C1154       C  0.68120309  0.13371010  0.93683278     0.96370
O1155       O  0.68803613  0.16533063  0.54711637    -0.76850
O1156       O  0.77756238  0.12379915  0.95326427    -0.82040
C1157       C  0.80914113  0.14817723  0.56234004     0.98990
C1158       C  0.81258465  0.15104998  0.93850652     1.04910
O1159       O  0.83107798  0.18424552  0.54733239    -0.77690
C1160       C  0.67832019  0.13002841  0.56061527     1.03210
C1161       C  0.57818282  0.07538227  0.78783917     0.03380
C1162       C  0.59814375  0.07863895  0.74903586    -0.12770
C1163       C  0.57633136  0.06878121  0.71088049     0.00880
C1164       C  0.53345912  0.05250768  0.71126508    -0.11290
C1165       C  0.01271472  0.04729825  0.74965121     0.03370
C1166       C  0.53509488  0.05962609  0.78760983    -0.10710
H1167       H  0.63122701  0.09053441  0.74789909     0.08970
H1168       H  0.01649297  0.04523950  0.68173676     0.06500
H1169       H  0.01877330  0.05797573  0.81636491     0.06350
Fe1170     Fe  0.62375107  0.32518243  0.50124914     1.65780
Fe1171     Fe  0.61008480  0.40713807  0.99970444     1.73250
Fe1172     Fe  0.52593815  0.30936569  0.99825182     1.54410
O1173       O  0.52920158  0.26997213  0.95561918    -0.81420
O1174       O  0.57122343  0.40382265  0.54733150    -0.79730
O1175       O  0.59543314  0.28789487  0.95040737    -0.83930
O1176       O  0.58710415  0.27869230  0.54408638    -0.78780
O1177       O  0.51910286  0.33904696  0.94696764    -0.80560
O1178       O  0.65392156  0.41761122  0.54618293    -0.83300
C1179       C  0.55233119  0.26617169  0.56198962     0.97460
C1180       C  0.55803539  0.26708819  0.93831001     1.04900
O1181       O  0.58660813  0.34730647  0.99972459    -1.12280
O1182       O  0.65128934  0.41748833  0.95177466    -0.74720
O1183       O  0.66587450  0.36829690  0.95865352    -0.78200
O1184       O  0.52710680  0.27670030  0.54972348    -0.78890
C1185       C  0.67132124  0.40070529  0.94088332     0.96370
O1186       O  0.65557398  0.36021231  0.55231781    -0.76850
O1187       O  0.56956646  0.40427222  0.95322158    -0.82040
C1188       C  0.53433834  0.37739870  0.55817868     0.98990
C1189       C  0.53751833  0.37614481  0.93469383     1.04910
O1190       O  0.51370219  0.34269873  0.54077179    -0.77690
C1191       C  0.66600249  0.39577372  0.56455458     1.03210
C1192       C  0.95591952  0.45970168  0.74729380     0.03380
C1193       C  0.96138451  0.44584538  0.70839543    -0.12770
C1194       C  0.97690768  0.41948221  0.70689801     0.00880
C1195       C  0.98583046  0.40620924  0.74490232    -0.11290
C1196       C  0.98101373  0.42036230  0.78396095     0.03370
C1197       C  0.96605945  0.44724343  0.78499121    -0.10710
H1198       H  0.95384531  0.45590138  0.67935715     0.08970
H1199       H  0.99864403  0.38651904  0.74402563     0.06500
H1200       H  0.96227294  0.45842850  0.81500197     0.06350
C1201       C  0.77268041  0.45788830  0.79023137     0.03380
C1202       C  0.74998143  0.44838010  0.75250352    -0.12770
C1203       C  0.76975211  0.45490058  0.71311026     0.00880
C1204       C  0.81291561  0.97191192  0.71164841    -0.11290
C1205       C  0.83574331  0.98136022  0.74933220     0.03370
C1206       C  0.81559748  0.97420554  0.78844850    -0.10710
H1207       H  0.71656094  0.43460717  0.75383782     0.08970
H1208       H  0.82852256  0.97659784  0.68151155     0.06500
H1209       H  0.83334071  0.98116314  0.81744599     0.06350
C1210       C  0.51626454  0.16535270  0.79048366     0.03380
C1211       C  0.52797912  0.18722643  0.75203891    -0.12770
C1212       C  0.51531473  0.16685555  0.71318998     0.00880
C1213       C  0.99190882  0.12395545  0.71308681    -0.11290
C1214       C  0.98048346  0.10179281  0.75131908     0.03370
C1215       C  0.99243540  0.12247014  0.78995800    -0.10710
H1216       H  0.54586029  0.22039984  0.75243622     0.08970
H1217       H  0.98073807  0.10776268  0.68351333     0.06500
H1218       H  0.98254308  0.10522449  0.81943368     0.06350
C1219       C  0.90871595  0.04078348  0.74991181     0.02540
C1220       C  0.95187940  0.05693171  0.75078022     0.02540
C1221       C  0.96743249  0.03041277  0.74983190     0.02540
C1222       C  0.93972045  0.48770787  0.74834584     0.02540
C1223       C  0.89647711  0.47159942  0.74771934     0.02540
C1224       C  0.88099528  0.99816070  0.74829801     0.02540
C1225       C  0.51610637  0.22317892  0.67198282    -0.21050
C1226       C  0.52363072  0.19081489  0.67337442    -0.09100
C1227       C  0.53921661  0.18228139  0.63696150     0.29760
C1228       C  0.54868936  0.20691881  0.60063196    -0.21050
C1229       C  0.54131249  0.23935957  0.59959085    -0.09110
C1230       C  0.52450750  0.24700221  0.63545084     0.29770
F1231       F  0.51782980  0.27864032  0.63581841    -0.19630
H1232       H  0.50344716  0.22995275  0.69929633     0.18130
H1233       H  0.56149245  0.20050249  0.57318910     0.18140
F1234       F  0.04609480  0.15078534  0.63668008    -0.19620
C1235       C  0.50639135  0.20778727  0.89472701    -0.21050
C1236       C  0.54778650  0.23883212  0.90222063    -0.09100
C1237       C  0.57894721  0.24332723  0.87403570     0.29760
C1238       C  0.56853696  0.21832675  0.83861428    -0.21050
C1239       C  0.52714205  0.18805282  0.83072852    -0.09110
C1240       C  0.99614048  0.18242753  0.85950651     0.29770
F1241       F  0.95572150  0.15378969  0.85247442    -0.19630
H1242       H  0.98177699  0.20343899  0.91585872     0.18130
H1243       H  0.59281644  0.22312338  0.81672903     0.18140
F1244       F  0.61933356  0.27294329  0.87955156    -0.19620
C1245       C  0.75464754  0.42141711  0.85984743    -0.21050
C1246       C  0.75074459  0.44760126  0.83133173    -0.09100
C1247       C  0.72353977  0.46123152  0.84096169     0.29760
C1248       C  0.69913947  0.44719363  0.87757944    -0.21050
C1249       C  0.70104568  0.41891747  0.90502133    -0.09110
C1250       C  0.72987246  0.40686184  0.89622132     0.29770
F1251       F  0.73366443  0.38044946  0.92219304    -0.19630
H1252       H  0.77581085  0.41097367  0.85302188     0.18130
H1253       H  0.67762283  0.45739893  0.88359450     0.18140
F1254       F  0.72022471  0.98772100  0.81463728    -0.19620
C1255       C  0.72546298  0.45263790  0.60417155    -0.21050
C1256       C  0.69278586  0.41162806  0.60230316    -0.09100
C1257       C  0.68626050  0.38519673  0.63666784     0.29760
C1258       C  0.71157446  0.39966426  0.67230161    -0.21050
C1259       C  0.74435571  0.44050103  0.67422100    -0.09110
C1260       C  0.75155119  0.46687789  0.63961296     0.29770
F1261       F  0.78324352  0.00642602  0.64040644    -0.19630
H1262       H  0.73121171  0.47338651  0.57789627     0.18130
H1263       H  0.70567878  0.37881734  0.69853570     0.18140
F1264       F  0.65467152  0.34552290  0.63627889    -0.19620
C1265       C  0.97757136  0.36761601  0.83417842    -0.21050
C1266       C  0.99405970  0.40889104  0.82331483    -0.09100
C1267       C  0.52477980  0.43918190  0.84899236     0.29760
C1268       C  0.53817632  0.42843424  0.88547615    -0.21050
C1269       C  0.52145719  0.38706450  0.89689049    -0.09110
C1270       C  0.99073638  0.35663544  0.87071534     0.29770
F1271       F  0.97409545  0.31622587  0.87957121    -0.19630
H1272       H  0.95477241  0.34380071  0.81402920     0.18130
H1273       H  0.56226204  0.45261686  0.90435160     0.18140
F1274       F  0.54358973  0.47907523  0.83722123    -0.19620
C1275       C  0.52627473  0.42789851  0.60014574    -0.21050
C1276       C  0.51520331  0.38719092  0.59334250    -0.09100
C1277       C  0.48797120  0.35660162  0.62206850     0.29760
C1278       C  0.97473929  0.36713304  0.65844331    -0.21050
C1279       C  0.98687646  0.40799978  0.66594157    -0.09110
C1280       C  0.01163110  0.43816231  0.63566446     0.29770
F1281       F  0.02347706  0.47788368  0.64148623    -0.19630
H1282       H  0.54679123  0.45191737  0.57820003     0.18130
H1283       H  0.95568533  0.34340635  0.68129256     0.18140
F1284       F  0.47586899  0.31681294  0.61625491    -0.19620
C1285       C  0.63843936  0.13695002  0.61964144    -0.21050
C1286       C  0.64948003  0.11227793  0.59731227    -0.09100
C1287       C  0.63464019  0.07192776  0.61213838     0.29760
C1288       C  0.61012045  0.05732377  0.64881542    -0.21050
C1289       C  0.59970885  0.08240046  0.67084222    -0.09110
C1290       C  0.61417023  0.12230926  0.65619183     0.29770
F1291       F  0.60620362  0.14769822  0.67845326    -0.19630
H1292       H  0.64964637  0.16819491  0.60962289     0.18130
H1293       H  0.60002760  0.02680751  0.66054143     0.18140
F1294       F  0.64424983  0.04676278  0.59178988    -0.19620
C1295       C  0.61344351  0.08616446  0.90312655    -0.21050
C1296       C  0.65439235  0.11894526  0.89965131    -0.09100
C1297       C  0.66955077  0.13848779  0.86051064     0.29760
C1298       C  0.64422272  0.12474321  0.82489773    -0.21050
C1299       C  0.60326324  0.09086609  0.82739633    -0.09110
C1300       C  0.58774715  0.07244331  0.86754104     0.29770
F1301       F  0.54812713  0.04104969  0.87289561    -0.19630
H1302       H  0.60128631  0.07139230  0.93352949     0.18130
H1303       H  0.65687269  0.14108974  0.79534061     0.18140
F1304       F  0.70914653  0.17057767  0.85664433    -0.19620
C1305       C  0.84040851  0.29792161  0.87498566    -0.21050
C1306       C  0.80787104  0.29183462  0.90180365    -0.09100
C1307       C  0.78538216  0.31096968  0.89141498     0.29760
C1308       C  0.79494879  0.33493667  0.85460848    -0.21050
C1309       C  0.82657355  0.33977458  0.82749277    -0.09110
C1310       C  0.84938905  0.32132852  0.83794921     0.29770
F1311       F  0.87979987  0.32537676  0.81173721    -0.19630
H1312       H  0.85804300  0.28340495  0.88190206     0.18130
H1313       H  0.77690477  0.34875614  0.84659940     0.18140
F1314       F  0.75402101  0.30636337  0.91656748    -0.19620
C1315       C  0.79523055  0.33488796  0.64332537    -0.21050
C1316       C  0.82662761  0.33953959  0.67074186    -0.09100
C1317       C  0.84883060  0.32029938  0.66153251     0.29760
C1318       C  0.83934689  0.29615248  0.62556904    -0.21050
C1319       C  0.80689762  0.29007738  0.59861391    -0.09110
C1320       C  0.78509274  0.31007880  0.60765995     0.29770
F1321       F  0.75397211  0.30566345  0.58219713    -0.19630
H1322       H  0.77786279  0.34960561  0.65020496     0.18130
H1323       H  0.85661138  0.28117394  0.61955728     0.18140
F1324       F  0.87920160  0.32436940  0.68789744    -0.19620
C1325       C  0.86706861  0.15715000  0.60913661    -0.21050
C1326       C  0.82439983  0.13622128  0.59970395    -0.09100
C1327       C  0.79627770  0.10472804  0.62728576     0.29760
C1328       C  0.81058731  0.09529984  0.66384121    -0.21050
C1329       C  0.85300175  0.11631440  0.67313591    -0.09110
C1330       C  0.88134793  0.14698964  0.64542602     0.29770
F1331       F  0.92257237  0.16764222  0.65402470    -0.19630
H1332       H  0.88935482  0.18139180  0.58844802     0.18130
H1333       H  0.78848079  0.07164037  0.68519013     0.18140
F1334       F  0.75477884  0.08395966  0.61988291    -0.19620
C1335       C  0.87159183  0.15963779  0.83790467    -0.21050
C1336       C  0.85767970  0.11841260  0.83005340    -0.09100
C1337       C  0.83108866  0.08830828  0.85941217     0.29760
C1338       C  0.81728585  0.09925237  0.89507686    -0.21050
C1339       C  0.83021719  0.14042032  0.90246299    -0.09110
C1340       C  0.85834479  0.17071985  0.87390004     0.29770
F1341       F  0.87150702  0.21083201  0.87951961    -0.19630
H1342       H  0.89221267  0.18323085  0.81563631     0.18130
H1343       H  0.79587819  0.07535175  0.91662232     0.18140
F1344       F  0.81673612  0.04812856  0.85250367    -0.19620
C1345       C  0.89247890  0.56863780  0.25044248     0.03380
C1346       C  0.88491912  0.58133665  0.28907327    -0.12770
C1347       C  0.86829693  0.60678660  0.28967833     0.00880
C1348       C  0.85945821  0.61943753  0.25128840    -0.11290
C1349       C  0.86680151  0.60660192  0.21267309     0.03370
C1350       C  0.88354911  0.58138105  0.21227374    -0.10710
H1351       H  0.89165755  0.57113415  0.31850122     0.08970
H1352       H  0.84548523  0.63813490  0.25143561     0.06500
H1353       H  0.88857329  0.57078694  0.18246633     0.06350
C1354       C  0.83472224  0.86245828  0.28725998     0.03380
C1355       C  0.82422790  0.84117734  0.24906048    -0.12770
C1356       C  0.83480308  0.86241955  0.21031251     0.00880
C1357       C  0.85631043  0.90528804  0.20981671    -0.11290
C1358       C  0.86773920  0.92675470  0.24800949     0.03370
C1359       C  0.85627423  0.90529231  0.28668683    -0.10710
H1360       H  0.80856560  0.80804064  0.24948997     0.08970
H1361       H  0.86606824  0.92189946  0.17996370     0.06500
H1362       H  0.86599892  0.92191484  0.31615903     0.06350
Fe1363     Fe  0.72606467  0.70488165  0.00016138     1.65780
Fe1364     Fe  0.73701584  0.62111549  0.49890494     1.73250
Fe1365     Fe  0.82326901  0.71800023  0.50052397     1.54420
O1366       O  0.82284713  0.75595269  0.45360568    -0.81420
O1367       O  0.77412464  0.62208158  0.04719188    -0.79730
O1368       O  0.75964996  0.74725695  0.45337783    -0.83920
O1369       O  0.75906411  0.74609829  0.04721365    -0.78780
O1370       O  0.83261899  0.68706029  0.45295783    -0.80560
O1371       O  0.69324579  0.61004018  0.04466146    -0.83300
C1372       C  0.79532063  0.76188593  0.06237001     0.97460
C1373       C  0.79623425  0.76366767  0.43871105     1.04900
O1374       O  0.76212970  0.68133234  0.49983680    -1.12280
O1375       O  0.69668153  0.61321012  0.45060057    -0.74720
O1376       O  0.68873978  0.66716956  0.45273814    -0.78200
O1377       O  0.82184301  0.75389635  0.04818793    -0.78890
C1378       C  0.68120305  0.63371010  0.43683278     0.96370
O1379       O  0.68803613  0.66533062  0.04711637    -0.76850
O1380       O  0.77756235  0.62379915  0.45326427    -0.82040
C1381       C  0.80914118  0.64817727  0.06234004     0.98990
C1382       C  0.81258462  0.65104998  0.43850652     1.04910
O1383       O  0.83107802  0.68424557  0.04733240    -0.77690
C1384       C  0.67832022  0.63002841  0.06061530     1.03210
C1385       C  0.57818280  0.57538227  0.28783916     0.03380
C1386       C  0.59814373  0.57863895  0.24903586    -0.12770
C1387       C  0.57633134  0.56878122  0.21088049     0.00880
C1388       C  0.53345910  0.55250769  0.21126508    -0.11290
C1389       C  0.01271472  0.54729828  0.24965121     0.03370
C1390       C  0.53509486  0.55962609  0.28760982    -0.10710
H1391       H  0.63122699  0.59053441  0.24789909     0.08970
H1392       H  0.01649296  0.54523954  0.18173675     0.06500
H1393       H  0.01877330  0.55797576  0.31636491     0.06350
Fe1394     Fe  0.62375109  0.82518245  0.00124920     1.65780
Fe1395     Fe  0.61008480  0.90713807  0.49970447     1.73250
Fe1396     Fe  0.52593817  0.80936568  0.49825188     1.54410
O1397       O  0.52920160  0.76997212  0.45561925    -0.81420
O1398       O  0.57122344  0.90382264  0.04733155    -0.79730
O1399       O  0.59543316  0.78789485  0.45040744    -0.83930
O1400       O  0.58710418  0.77869232  0.04408645    -0.78780
O1401       O  0.51910286  0.83904694  0.44696769    -0.80560
O1402       O  0.65392157  0.91761124  0.04618296    -0.83300
C1403       C  0.55233124  0.76617172  0.06198971     0.97460
C1404       C  0.55803540  0.76708816  0.43831009     1.04900
O1405       O  0.58660814  0.84730647  0.49972464    -1.12280
O1406       O  0.65128934  0.91748833  0.45177469    -0.74720
O1407       O  0.66587451  0.86829690  0.45865355    -0.78200
O1408       O  0.52710684  0.77670032  0.04972356    -0.78890
C1409       C  0.67132125  0.90070529  0.44088335     0.96370
O1410       O  0.65557400  0.86021234  0.05231786    -0.76850
O1411       O  0.56956645  0.90427220  0.45322161    -0.82040
C1412       C  0.53433835  0.87739869  0.05817873     0.98990
C1413       C  0.53751832  0.87614478  0.43469388     1.04910
O1414       O  0.51370220  0.84269872  0.04077183    -0.77690
C1415       C  0.66600251  0.89577375  0.06455462     1.03210
C1416       C  0.95591953  0.95970168  0.24729382     0.03380
C1417       C  0.96138453  0.94584538  0.20839547    -0.12770
C1418       C  0.97690770  0.91948221  0.20689805     0.00880
C1419       C  0.98583046  0.90620924  0.24490237    -0.11290
C1420       C  0.98101372  0.92036230  0.28396100     0.03370
C1421       C  0.96605945  0.94724343  0.28499125    -0.10710
H1422       H  0.95384532  0.95590137  0.17935718     0.08970
H1423       H  0.99864404  0.88651905  0.24402570     0.06500
H1424       H  0.96227293  0.95842850  0.31500200     0.06350
C1425       C  0.77268043  0.95788832  0.29023141     0.03380
C1426       C  0.74998145  0.94838013  0.25250356    -0.12770
C1427       C  0.76975212  0.95490062  0.21311030     0.00880
C1428       C  0.81291561  0.47191190  0.21164838    -0.11290
C1429       C  0.83574331  0.48136022  0.24933217     0.03370
C1430       C  0.81559747  0.47420554  0.28844847    -0.10710
H1431       H  0.71656096  0.93460722  0.25383786     0.08970
H1432       H  0.82852256  0.47659782  0.18151152     0.06500
H1433       H  0.83334069  0.48116315  0.31744596     0.06350
C1434       C  0.51626455  0.66535267  0.29048375     0.03380
C1435       C  0.52797915  0.68722642  0.25203901    -0.12770
C1436       C  0.51531474  0.66685557  0.21319006     0.00880
C1437       C  0.99190882  0.62395549  0.21308690    -0.11290
C1438       C  0.98048344  0.60179283  0.25131915     0.03370
C1439       C  0.99243540  0.62247012  0.28995808    -0.10710
H1440       H  0.54586035  0.72039984  0.25243634     0.08970
H1441       H  0.98073804  0.60776274  0.18351341     0.06500
H1442       H  0.98254304  0.60522445  0.31943375     0.06350
C1443       C  0.90871594  0.54078349  0.24991183     0.02540
C1444       C  0.95187938  0.55693173  0.25078025     0.02540
C1445       C  0.96743249  0.53041279  0.24983190     0.02540
C1446       C  0.93972045  0.98770788  0.24834586     0.02540
C1447       C  0.89647712  0.97159942  0.24771936     0.02540
C1448       C  0.88099528  0.49816071  0.24829799     0.02540
C1449       C  0.51610652  0.72317904  0.17198295    -0.21050
C1450       C  0.52363076  0.69081493  0.17337452    -0.09100
C1451       C  0.53921655  0.68228137  0.13696156     0.29760
C1452       C  0.54868930  0.70691879  0.10063202    -0.21050
C1453       C  0.54131254  0.73935961  0.09959094    -0.09110
C1454       C  0.52450767  0.74700234  0.13545098     0.29770
F1455       F  0.51783009  0.77864053  0.13581857    -0.19630
H1456       H  0.50344740  0.72995293  0.19929649     0.18130
H1457       H  0.56149231  0.70050241  0.07318913     0.18140
F1458       F  0.04609449  0.65078515  0.13668005    -0.19620
C1459       C  0.50639134  0.70778730  0.39472704    -0.21050
C1460       C  0.54778651  0.73883207  0.40222072    -0.09100
C1461       C  0.57894723  0.74332708  0.37403587     0.29760
C1462       C  0.56853698  0.71832660  0.33861444    -0.21050
C1463       C  0.52714205  0.68805277  0.33072861    -0.09110
C1464       C  0.99614047  0.68242765  0.35950648     0.29770
F1465       F  0.95572146  0.65378998  0.35247423    -0.19630
H1466       H  0.98177694  0.70343925  0.41585856     0.18130
H1467       H  0.59281646  0.72312317  0.31672924     0.18140
F1468       F  0.61933361  0.77294305  0.37955180    -0.19620
C1469       C  0.75464754  0.92141712  0.35984746    -0.21050
C1470       C  0.75074460  0.94760128  0.33133177    -0.09100
C1471       C  0.72353979  0.96123154  0.34096173     0.29760
C1472       C  0.69913948  0.94719365  0.37757949    -0.21050
C1473       C  0.70104569  0.91891747  0.40502136    -0.09110
C1474       C  0.72987246  0.90686184  0.39622134     0.29770
F1475       F  0.73366442  0.88044944  0.42219305    -0.19630
H1476       H  0.77581085  0.91097367  0.35302190     0.18130
H1477       H  0.67762286  0.95739895  0.38359455     0.18140
F1478       F  0.72022469  0.48772098  0.31463723    -0.19620
C1479       C  0.72546301  0.95263793  0.10417158    -0.21050
C1480       C  0.69278588  0.91162810  0.10230320    -0.09100
C1481       C  0.68626050  0.88519677  0.13666789     0.29760
C1482       C  0.71157445  0.89966430  0.17230166    -0.21050
C1483       C  0.74435572  0.94050107  0.17422104    -0.09110
C1484       C  0.75155121  0.96687792  0.13961299     0.29770
F1485       F  0.78324352  0.50642597  0.14040639    -0.19630
H1486       H  0.73121175  0.97338654  0.07789629     0.18130
H1487       H  0.70567876  0.87881739  0.19853576     0.18140
F1488       F  0.65467150  0.84552295  0.13627895    -0.19620
C1489       C  0.97757136  0.86761601  0.33417846    -0.21050
C1490       C  0.99405968  0.90889104  0.32331489    -0.09100
C1491       C  0.52477976  0.93918186  0.34899241     0.29760
C1492       C  0.53817630  0.92843421  0.38547620    -0.21050
C1493       C  0.52145717  0.88706447  0.39689054    -0.09110
C1494       C  0.99073638  0.85663543  0.37071538     0.29770
F1495       F  0.97409546  0.81622587  0.37957123    -0.19630
H1496       H  0.95477241  0.84380071  0.31402924     0.18130
H1497       H  0.56226202  0.95261683  0.40435164     0.18140
F1498       F  0.54358969  0.97907519  0.33722128    -0.19620
C1499       C  0.52627472  0.92789849  0.10014579    -0.21050
C1500       C  0.51520332  0.88719090  0.09334256    -0.09100
C1501       C  0.48797123  0.85660160  0.12206856     0.29760
C1502       C  0.97473936  0.86713304  0.15844339    -0.21050
C1503       C  0.98687648  0.90799977  0.16594163    -0.09110
C1504       C  0.01163109  0.93816230  0.13566449     0.29770
F1505       F  0.02347702  0.97788366  0.14148624    -0.19630
H1506       H  0.54679121  0.95191735  0.07820008     0.18130
H1507       H  0.95568542  0.84340635  0.18129265     0.18140
F1508       F  0.47586903  0.81681293  0.11625498    -0.19620
C1509       C  0.63843931  0.63694999  0.11964141    -0.21050
C1510       C  0.64948004  0.61227792  0.09731229    -0.09100
C1511       C  0.63464025  0.57192778  0.11213844     0.29760
C1512       C  0.61012049  0.55732379  0.14881546    -0.21050
C1513       C  0.59970883  0.58240046  0.17084222    -0.09110
C1514       C  0.61417017  0.62230923  0.15619179     0.29770
F1515       F  0.60620351  0.64769818  0.17845317    -0.19630
H1516       H  0.64964629  0.66819487  0.10962283     0.18130
H1517       H  0.60002767  0.52680754  0.16054150     0.18140
F1518       F  0.64424994  0.54676281  0.09178998    -0.19620
C1519       C  0.61344349  0.58616446  0.40312654    -0.21050
C1520       C  0.65439232  0.61894526  0.39965131    -0.09100
C1521       C  0.66955074  0.63848780  0.36051064     0.29760
C1522       C  0.64422270  0.62474322  0.32489773    -0.21050
C1523       C  0.60326321  0.59086609  0.32739633    -0.09110
C1524       C  0.58774713  0.57244330  0.36754104     0.29770
F1525       F  0.54812711  0.54104968  0.37289560    -0.19630
H1526       H  0.60128628  0.57139229  0.43352948     0.18130
H1527       H  0.65687266  0.64108975  0.29534061     0.18140
F1528       F  0.70914650  0.67057769  0.35664434    -0.19620
C1529       C  0.84040850  0.79792162  0.37498568    -0.21050
C1530       C  0.80787102  0.79183461  0.40180366    -0.09100
C1531       C  0.78538213  0.81096967  0.39141497     0.29760
C1532       C  0.79494877  0.83493666  0.35460847    -0.21050
C1533       C  0.82657354  0.83977458  0.32749278    -0.09110
C1534       C  0.84938905  0.82132853  0.33794922     0.29770
F1535       F  0.87979988  0.82537679  0.31173724    -0.19630
H1536       H  0.85804300  0.78340497  0.38190208     0.18130
H1537       H  0.77690474  0.84875612  0.34659937     0.18140
F1538       F  0.75402097  0.80636335  0.41656745    -0.19620
C1539       C  0.79523055  0.83488796  0.14332539    -0.21050
C1540       C  0.82662763  0.83953961  0.17074186    -0.09100
C1541       C  0.84883064  0.82029942  0.16153250     0.29760
C1542       C  0.83934692  0.79615252  0.12556902    -0.21050
C1543       C  0.80689764  0.79007740  0.09861391    -0.09110
C1544       C  0.78509274  0.81007880  0.10765997     0.29770
F1545       F  0.75397209  0.80566343  0.08219716    -0.19630
H1546       H  0.77786278  0.84960559  0.15020499     0.18130
H1547       H  0.85661142  0.78117400  0.11955725     0.18140
F1548       F  0.87920165  0.82436946  0.18789741    -0.19620
C1549       C  0.86706867  0.65715017  0.10913669    -0.21050
C1550       C  0.82439991  0.63622134  0.09970395    -0.09100
C1551       C  0.79627779  0.60472800  0.12728569     0.29760
C1552       C  0.81058741  0.59529981  0.16384115    -0.21050
C1553       C  0.85300183  0.61631448  0.17313593    -0.09110
C1554       C  0.88134800  0.64698983  0.14542611     0.29770
F1555       F  0.92257242  0.66764252  0.15402488    -0.19630
H1556       H  0.88935486  0.68139205  0.08844816     0.18130
H1557       H  0.78848090  0.57164027  0.18519001     0.18140
F1558       F  0.75477894  0.58395952  0.11988277    -0.19620
C1559       C  0.87159182  0.65963781  0.33790468    -0.21050
C1560       C  0.85767969  0.61841262  0.33005341    -0.09100
C1561       C  0.83108864  0.58830830  0.35941216     0.29760
C1562       C  0.81728582  0.59925238  0.39507685    -0.21050
C1563       C  0.83021716  0.64042032  0.40246300    -0.09110
C1564       C  0.85834477  0.67071986  0.37390005     0.29770
F1565       F  0.87150700  0.71083202  0.37951963    -0.19630
H1566       H  0.89221267  0.68323088  0.31563633     0.18130
H1567       H  0.79587815  0.57535175  0.41662231     0.18140
F1568       F  0.81673610  0.54812858  0.35250366    -0.19620
C1569       C  0.89247890  0.56863781  0.75044247     0.03380
C1570       C  0.88491913  0.58133666  0.78907326    -0.12770
C1571       C  0.86829692  0.60678660  0.78967832     0.00880
C1572       C  0.85945819  0.61943753  0.75128839    -0.11290
C1573       C  0.86680149  0.60660191  0.71267308     0.03370
C1574       C  0.88354910  0.58138106  0.71227372    -0.10710
H1575       H  0.89165756  0.57113417  0.81850120     0.08970
H1576       H  0.84548521  0.63813489  0.75143561     0.06500
H1577       H  0.88857329  0.57078694  0.68246632     0.06350
C1578       C  0.83472222  0.86245824  0.78725999     0.03380
C1579       C  0.82422787  0.84117731  0.74906049    -0.12770
C1580       C  0.83480305  0.86241953  0.71031251     0.00880
C1581       C  0.85631041  0.90528801  0.70981672    -0.11290
C1582       C  0.86773919  0.92675467  0.74800950     0.03370
C1583       C  0.85627421  0.90529228  0.78668684    -0.10710
H1584       H  0.80856556  0.80804061  0.74948997     0.08970
H1585       H  0.86606822  0.92189943  0.67996371     0.06500
H1586       H  0.86599891  0.92191481  0.81615904     0.06350
Fe1587     Fe  0.72606466  0.70488166  0.50016136     1.65780
Fe1588     Fe  0.73701585  0.62111548  0.99890495     1.73250
Fe1589     Fe  0.82326903  0.71800023  0.00052398     1.54420
O1590       O  0.82284714  0.75595268  0.95360569    -0.81420
O1591       O  0.77412462  0.62208158  0.54719187    -0.79730
O1592       O  0.75964997  0.74725695  0.95337785    -0.83920
O1593       O  0.75906410  0.74609829  0.54721363    -0.78780
O1594       O  0.83261900  0.68706029  0.95295784    -0.80560
O1595       O  0.69324578  0.61004019  0.54466145    -0.83300
C1596       C  0.79532061  0.76188593  0.56237000     0.97460
C1597       C  0.79623425  0.76366766  0.93871107     1.04900
O1598       O  0.76212971  0.68133234  0.99983682    -1.12280
O1599       O  0.69668154  0.61321011  0.95060058    -0.74720
O1600       O  0.68873979  0.66716955  0.95273816    -0.78200
O1601       O  0.82184300  0.75389635  0.54818791    -0.78890
C1602       C  0.68120307  0.63371009  0.93683280     0.96370
O1603       O  0.68803612  0.66533063  0.54711635    -0.76850
O1604       O  0.77756236  0.62379914  0.95326429    -0.82040
C1605       C  0.80914117  0.64817727  0.56234003     0.98990
C1606       C  0.81258464  0.65104998  0.93850653     1.04910
O1607       O  0.83107800  0.68424557  0.54733239    -0.77690
C1608       C  0.67832021  0.63002842  0.56061528     1.03210
C1609       C  0.57818282  0.57538229  0.78783917     0.03380
C1610       C  0.59814375  0.57863897  0.74903586    -0.12770
C1611       C  0.57633136  0.56878125  0.71088050     0.00880
C1612       C  0.53345913  0.55250772  0.71126508    -0.11290
C1613       C  0.01271472  0.54729829  0.74965121     0.03370
C1614       C  0.53509488  0.55962611  0.78760983    -0.10710
H1615       H  0.63122701  0.59053444  0.74789909     0.08970
H1616       H  0.01649297  0.54523955  0.68173676     0.06500
H1617       H  0.01877330  0.55797577  0.81636492     0.06350
Fe1618     Fe  0.62375109  0.82518245  0.50124918     1.65780
Fe1619     Fe  0.61008480  0.90713807  0.99970447     1.73250
Fe1620     Fe  0.52593817  0.80936567  0.99825189     1.54410
O1621       O  0.52920160  0.76997211  0.95561926    -0.81420
O1622       O  0.57122344  0.90382264  0.54733155    -0.79730
O1623       O  0.59543316  0.78789485  0.95040746    -0.83930
O1624       O  0.58710419  0.77869232  0.54408643    -0.78780
O1625       O  0.51910286  0.83904693  0.94696770    -0.80560
O1626       O  0.65392157  0.91761124  0.54618296    -0.83300
C1627       C  0.55233125  0.76617173  0.56198970     0.97460
C1628       C  0.55803541  0.76708816  0.93831010     1.04900
O1629       O  0.58660814  0.84730647  0.99972465    -1.12280
O1630       O  0.65128933  0.91748832  0.95177470    -0.74720
O1631       O  0.66587451  0.86829690  0.95865357    -0.78200
O1632       O  0.52710685  0.77670033  0.54972355    -0.78890
C1633       C  0.67132125  0.90070528  0.94088336     0.96370
O1634       O  0.65557401  0.86021234  0.55231784    -0.76850
O1635       O  0.56956644  0.90427219  0.95322162    -0.82040
C1636       C  0.53433835  0.87739869  0.55817872     0.98990
C1637       C  0.53751832  0.87614478  0.93469388     1.04910
O1638       O  0.51370220  0.84269872  0.54077183    -0.77690
C1639       C  0.66600251  0.89577374  0.56455461     1.03210
C1640       C  0.95591951  0.95970164  0.74729384     0.03380
C1641       C  0.96138449  0.94584533  0.70839548    -0.12770
C1642       C  0.97690766  0.91948215  0.70689806     0.00880
C1643       C  0.98583043  0.90620919  0.74490238    -0.11290
C1644       C  0.98101370  0.92036225  0.78396100     0.03370
C1645       C  0.96605943  0.94724339  0.78499126    -0.10710
H1646       H  0.95384529  0.95590132  0.67935719     0.08970
H1647       H  0.99864400  0.88651899  0.74402569     0.06500
H1648       H  0.96227292  0.95842846  0.81500201     0.06350
C1649       C  0.77268042  0.95788829  0.79023141     0.03380
C1650       C  0.74998144  0.94838010  0.75250356    -0.12770
C1651       C  0.76975211  0.95490060  0.71311030     0.00880
C1652       C  0.81291561  0.47191192  0.71164837    -0.11290
C1653       C  0.83574331  0.48136023  0.74933217     0.03370
C1654       C  0.81559747  0.47420556  0.78844847    -0.10710
H1655       H  0.71656095  0.93460719  0.75383786     0.08970
H1656       H  0.82852256  0.47659783  0.68151151     0.06500
H1657       H  0.83334070  0.48116317  0.81744596     0.06350
C1658       C  0.51626458  0.66535269  0.79048375     0.03380
C1659       C  0.52797919  0.68722645  0.75203901    -0.12770
C1660       C  0.51531477  0.66685559  0.71319006     0.00880
C1661       C  0.99190881  0.62395550  0.71308688    -0.11290
C1662       C  0.98048344  0.60179284  0.75131913     0.03370
C1663       C  0.99243540  0.62247013  0.78995806    -0.10710
H1664       H  0.54586040  0.72039986  0.75243634     0.08970
H1665       H  0.98073804  0.60776274  0.68351340     0.06500
H1666       H  0.98254305  0.60522447  0.81943374     0.06350
C1667       C  0.90871594  0.54078351  0.74991181     0.02540
C1668       C  0.95187939  0.55693174  0.75078025     0.02540
C1669       C  0.96743249  0.53041280  0.74983190     0.02540
C1670       C  0.93972044  0.98770784  0.74834587     0.02540
C1671       C  0.89647711  0.97159939  0.74771937     0.02540
C1672       C  0.88099528  0.49816072  0.74829798     0.02540
C1673       C  0.51610658  0.72317908  0.67198296    -0.21050
C1674       C  0.52363079  0.69081496  0.67337452    -0.09100
C1675       C  0.53921655  0.68228137  0.63696155     0.29760
C1676       C  0.54868930  0.70691879  0.60063200    -0.21050
C1677       C  0.54131256  0.73935963  0.59959094    -0.09110
C1678       C  0.52450773  0.74700238  0.63545098     0.29770
F1679       F  0.51783018  0.77864059  0.63581859    -0.19630
H1680       H  0.50344748  0.72995299  0.69929650     0.18130
H1681       H  0.56149228  0.70050239  0.57318910     0.18140
F1682       F  0.04609451  0.65078518  0.63668005    -0.19620
C1683       C  0.50639135  0.70778732  0.89472703    -0.21050
C1684       C  0.54778652  0.73883207  0.90222073    -0.09100
C1685       C  0.57894725  0.74332707  0.87403590     0.29760
C1686       C  0.56853700  0.71832660  0.83861447    -0.21050
C1687       C  0.52714207  0.68805279  0.83072862    -0.09110
C1688       C  0.99614047  0.68242761  0.85950651     0.29770
F1689       F  0.95572147  0.65378989  0.85247431    -0.19630
H1690       H  0.98177696  0.70343916  0.91585864     0.18130
H1691       H  0.59281650  0.72312316  0.81672928     0.18140
F1692       F  0.61933363  0.77294303  0.87955184    -0.19620
C1693       C  0.75464754  0.92141710  0.85984747    -0.21050
C1694       C  0.75074459  0.94760125  0.83133177    -0.09100
C1695       C  0.72353978  0.96123151  0.84096173     0.29760
C1696       C  0.69913947  0.94719362  0.87757949    -0.21050
C1697       C  0.70104568  0.91891746  0.90502137    -0.09110
C1698       C  0.72987246  0.90686182  0.89622136     0.29770
F1699       F  0.73366442  0.88044943  0.92219307    -0.19630
H1700       H  0.77581085  0.91097365  0.85302192     0.18130
H1701       H  0.67762284  0.95739893  0.88359455     0.18140
F1702       F  0.72022469  0.48772100  0.81463723    -0.19620
C1703       C  0.72546300  0.95263792  0.60417158    -0.21050
C1704       C  0.69278588  0.91162809  0.60230319    -0.09100
C1705       C  0.68626051  0.88519675  0.63666787     0.29760
C1706       C  0.71157446  0.89966428  0.67230164    -0.21050
C1707       C  0.74435572  0.94050105  0.67422104    -0.09110
C1708       C  0.75155120  0.96687791  0.63961300     0.29770
F1709       F  0.78324351  0.50642599  0.64040639    -0.19630
H1710       H  0.73121173  0.97338654  0.57789631     0.18130
H1711       H  0.70567878  0.87881736  0.69853573     0.18140
F1712       F  0.65467153  0.84552292  0.63627891    -0.19620
C1713       C  0.97757133  0.86761596  0.83417848    -0.21050
C1714       C  0.99405967  0.90889099  0.82331489    -0.09100
C1715       C  0.52477975  0.93918185  0.84899241     0.29760
C1716       C  0.53817629  0.92843420  0.88547620    -0.21050
C1717       C  0.52145717  0.88706446  0.89689054    -0.09110
C1718       C  0.99073635  0.85663540  0.87071541     0.29770
F1719       F  0.97409541  0.81622583  0.87957129    -0.19630
H1720       H  0.95477236  0.84380066  0.81402928     0.18130
H1721       H  0.56226201  0.95261682  0.90435165     0.18140
F1722       F  0.54358968  0.97907518  0.83722128    -0.19620
C1723       C  0.52627470  0.92789848  0.60014578    -0.21050
C1724       C  0.51520332  0.88719089  0.59334256    -0.09100
C1725       C  0.48797124  0.85660160  0.62206857     0.29760
C1726       C  0.97473932  0.86713300  0.65844338    -0.21050
C1727       C  0.98687644  0.90799972  0.66594162    -0.09110
C1728       C  0.01163104  0.93816226  0.63566449     0.29770
F1729       F  0.02347695  0.97788362  0.64148624    -0.19630
H1730       H  0.54679118  0.95191734  0.57820006     0.18130
H1731       H  0.95568539  0.84340631  0.68129263     0.18140
F1732       F  0.47586906  0.81681292  0.61625499    -0.19620
C1733       C  0.63843930  0.63695001  0.61964140    -0.21050
C1734       C  0.64948004  0.61227794  0.59731228    -0.09100
C1735       C  0.63464026  0.57192780  0.61213844     0.29760
C1736       C  0.61012051  0.55732382  0.64881547    -0.21050
C1737       C  0.59970885  0.58240048  0.67084222    -0.09110
C1738       C  0.61417017  0.62230925  0.65619178     0.29770
F1739       F  0.60620350  0.64769820  0.67845316    -0.19630
H1740       H  0.64964627  0.66819488  0.60962280     0.18130
H1741       H  0.60002771  0.52680757  0.66054152     0.18140
F1742       F  0.64424996  0.54676283  0.59178999    -0.19620
C1743       C  0.61344350  0.58616446  0.90312656    -0.21050
C1744       C  0.65439234  0.61894526  0.89965133    -0.09100
C1745       C  0.66955076  0.63848780  0.86051066     0.29760
C1746       C  0.64422272  0.62474322  0.82489774    -0.21050
C1747       C  0.60326324  0.59086611  0.82739634    -0.09110
C1748       C  0.58774714  0.57244332  0.86754105     0.29770
F1749       F  0.54812711  0.54104970  0.87289561    -0.19630
H1750       H  0.60128629  0.57139230  0.93352949     0.18130
H1751       H  0.65687269  0.64108976  0.79534062     0.18140
F1752       F  0.70914653  0.67057767  0.85664436    -0.19620
C1753       C  0.84040848  0.79792157  0.87498567    -0.21050
C1754       C  0.80787102  0.79183460  0.90180367    -0.09100
C1755       C  0.78538214  0.81096967  0.89141499     0.29760
C1756       C  0.79494877  0.83493665  0.85460849    -0.21050
C1757       C  0.82657352  0.83977455  0.82749278    -0.09110
C1758       C  0.84938901  0.82132848  0.83794921     0.29770
F1759       F  0.87979982  0.82537670  0.81173721    -0.19630
H1760       H  0.85804296  0.78340490  0.88190206     0.18130
H1761       H  0.77690475  0.84875613  0.84659941     0.18140
F1762       F  0.75402100  0.80636337  0.91656750    -0.19620
C1763       C  0.79523052  0.83488794  0.64332539    -0.21050
C1764       C  0.82662760  0.83953958  0.67074186    -0.09100
C1765       C  0.84883061  0.82029940  0.66153249     0.29760
C1766       C  0.83934690  0.79615252  0.62556901    -0.21050
C1767       C  0.80689762  0.79007739  0.59861390    -0.09110
C1768       C  0.78509272  0.81007879  0.60765997     0.29770
F1769       F  0.75397206  0.80566342  0.58219717    -0.19630
H1770       H  0.77786274  0.84960556  0.65020500     0.18130
H1771       H  0.85661141  0.78117400  0.61955723     0.18140
F1772       F  0.87920163  0.82436945  0.68789740    -0.19620
C1773       C  0.86706865  0.65715016  0.60913667    -0.21050
C1774       C  0.82439989  0.63622134  0.59970394    -0.09100
C1775       C  0.79627777  0.60472802  0.62728570     0.29760
C1776       C  0.81058738  0.59529983  0.66384115    -0.21050
C1777       C  0.85300181  0.61631448  0.67313592    -0.09110
C1778       C  0.88134798  0.64698981  0.64542609     0.29770
F1779       F  0.92257241  0.66764248  0.65402484    -0.19630
H1780       H  0.88935485  0.68139202  0.58844813     0.18130
H1781       H  0.78848088  0.57164029  0.68519002     0.18140
F1782       F  0.75477892  0.58395955  0.61988279    -0.19620
C1783       C  0.87159182  0.65963781  0.83790468    -0.21050
C1784       C  0.85767969  0.61841262  0.83005340    -0.09100
C1785       C  0.83108864  0.58830830  0.85941216     0.29760
C1786       C  0.81728583  0.59925238  0.89507686    -0.21050
C1787       C  0.83021717  0.64042032  0.90246300    -0.09110
C1788       C  0.85834477  0.67071987  0.87390005     0.29770
F1789       F  0.87150700  0.71083202  0.87951964    -0.19630
H1790       H  0.89221266  0.68323089  0.81563633     0.18130
H1791       H  0.79587817  0.57535175  0.91662231     0.18140
F1792       F  0.81673611  0.54812858  0.85250365    -0.19620
loop_ 
_geom_bond_atom_site_label_1 
_geom_bond_atom_site_label_2 
_geom_bond_distance 
_geom_bond_site_symmetry_2 
_ccdc_geom_bond_type 
C1            C2   1.401       .  A
C1            C6   1.400       .  A
C1           C99   1.476       .  S
C2            C3   1.403       .  A
C2            H7   1.084       .  S
C3            C4   1.403       .  A
C3          C216   1.478       .  S
C4            C5   1.400       .  A
C4            H8   1.084       .  S
C5            C6   1.398       .  A
C5          C209   1.468       .  S
C6            H9   1.084       .  S
C10          C11   1.400       .  A
C10          C15   1.400       .  A
C10         C189   1.471       .  S
C11          C12   1.401       .  A
C11          H16   1.084       .  S
C12          C13   1.401       .  A
C12         C196   1.472       .  S
C13          C14   1.403       .  A
C13          H17   1.084       .  S
C14          C15   1.402       .  A
C14         C103   1.478       .  S
C15          H18   1.084       .  S
Fe19         O35   2.063       .  S
Fe19         O25   2.061       .  S
Fe19        O256   2.058   1_554  S
Fe19        O248   2.059   1_554  S
Fe19        O254   1.979   1_554  S
Fe20         O31   2.062       .  S
Fe20         O36   2.065       .  S
Fe20        O247   2.054       .  S
Fe20        O251   2.064       .  S
Fe20         O30   1.983       .  S
Fe21         O26   2.062       .  S
Fe21         O22   2.068       .  S
Fe21        O263   2.070       .  S
Fe21        O257   2.067       .  S
Fe21         O30   1.980       .  S
O22          C29   1.270       .  A
O23        Fe244   2.054   1_554  S
O23          C37   1.268       .  A
O24        Fe243   2.059       .  S
O24          C29   1.268       .  A
O25          C28   1.268       .  A
O26          C38   1.267       .  A
O27        Fe244   2.064   1_554  S
O27          C40   1.267       .  A
C28         C199   1.483       .  S
C28          O33   1.269       .  A
C29         C186   1.482       .  S
O30        Fe243   1.979       .  S
O31          C34   1.267       .  A
O32        Fe243   2.058       .  S
O32          C34   1.266       .  A
O33        Fe245   2.067       .  S
C34         C176   1.462       .  S
O35          C40   1.269       .  A
O36          C38   1.269       .  A
C37         C206   1.480       .  S
C37          O39   1.270       .  A
C38         C219   1.482       .  S
O39        Fe245   2.070       .  S
C40         C166   1.486       .  S
C41          C42   1.410       .  A
C41          C46   1.408       .  A
C41         C179   1.495       .  S
C42          C43   1.398       .  A
C42          H47   1.083       .  S
C43          C44   1.397       .  A
C43         C169   1.471       .  S
C44         C941   1.400       .  A
C44         H944   1.084       .  S
C45         C940   1.400       .  A
C45         C942   1.403       .  A
C45         C101   1.478       .  S
C46         C941   1.403       .  A
C46         H945   1.081       .  S
H48         C940   1.084       .  S
H49         C942   1.081       .  S
Fe50         O66   2.051       .  S
Fe50         O56   2.076       .  S
Fe50        O287   2.072   1_554  S
Fe50        O279   2.053   1_554  S
Fe50        O285   1.973   1_554  S
Fe51         O62   2.054       .  S
Fe51         O67   2.078       .  S
Fe51        O278   2.058       .  S
Fe51        O282   2.088       .  S
Fe51         O61   1.978       .  S
Fe52         O57   2.059       .  S
Fe52         O53   2.081       .  S
Fe52        O294   2.070       .  S
Fe52        O288   2.054       .  S
Fe52         O61   1.973       .  S
O53          C60   1.272       .  A
O54        Fe275   2.058   1_554  S
O54          C68   1.268       .  A
O55        Fe274   2.053       .  S
O55          C60   1.267       .  A
O56          C59   1.269       .  A
O57          C69   1.269       .  A
O58        Fe275   2.088   1_554  S
O58          C71   1.273       .  A
C59         C109   1.473       .  S
C59          O64   1.267       .  A
C60         C116   1.486       .  S
O61        Fe274   1.973       .  S
O62          C65   1.267       .  A
O63        Fe274   2.072       .  S
O63          C65   1.270       .  A
O64        Fe276   2.054   1_554  S
C65         C129   1.484       .  S
O66          C71   1.268       .  A
O67          C69   1.273       .  A
C68         C156   1.478       .  S
C68          O70   1.269       .  A
C69         C149   1.488       .  S
O70        Fe276   2.070   1_554  S
C71         C136   1.478       .  S
C72          C73   1.401       .  A
C72          C77   1.402       .  A
C72         C102   1.481       .  S
C73          C74   1.403       .  A
C73          H78   1.084       .  S
C74          C75   1.405       .  A
C74         C159   1.481       .  S
C75          C76   1.402       .  A
C75          H79   1.084       .  S
C76          C77   1.404       .  A
C76         C146   1.479       .  S
C77          H80   1.084       .  S
C81          C82   1.403       .  A
C81         C534   1.399       .  A
C81         C126   1.477       .  S
C82          C83   1.404       .  A
C82          H87   1.084       .  S
C83         C532   1.404       .  A
C83         C139   1.480       .  S
C84          C85   1.404       .  A
C84         C531   1.404       .  A
C84          H88   1.084       .  S
C85          C86   1.400       .  A
C85         C104   1.477       .  S
C86         C529   1.399       .  A
C86          H89   1.084       .  S
C90          C91   1.403       .  A
C90         C991   1.402   1_455  A
C90         C119   1.480       .  S
C91          C92   1.405       .  A
C91          H96   1.084       .  S
C92         C989   1.402   1_455  A
C92         C106   1.483       .  S
C93          C94   1.402       .  A
C93         C988   1.402       .  A
C93          H97   1.084       .  S
C94          C95   1.403       .  A
C94         C100   1.478       .  S
C95         C986   1.402       .  A
C95          H98   1.084       .  S
C99         C100   1.408       .  A
C99         C104   1.408   1_545  A
C100        C101   1.409       .  A
C101        C550   1.411   1_545  A
C102        C103   1.411       .  A
C102        C549   1.411       .  A
C103        C552   1.408       .  A
C104        C551   1.408       .  A
C105        C106   1.404       .  A
C105        C110   1.393       .  A
C105        H112   1.083       .  S
C106        C107   1.409       .  A
C107        C108   1.401       .  A
C107       F1010   1.355       .  S
C108        C109   1.403       .  A
C108        H113   1.083       .  S
C109        C110   1.404       .  A
C110        F111   1.356       .  S
F114       C1003   1.355       .  S
C115        C116   1.407       .  A
C115       C1016   1.400   1_455  A
C115       H1018   1.083   1_455  S
C116        C117   1.411       .  A
C117        C118   1.397       .  A
C117        F124   1.358       .  S
C118        C119   1.402       .  A
C118        H123   1.084       .  S
C119       C1016   1.406   1_455  A
C120       C1011   1.400       .  A
C120       C1015   1.406       .  A
C120        F121   1.357       .  S
H122       C1011   1.083       .  S
C125        C126   1.402       .  A
C125        C130   1.398       .  A
C125        H132   1.083       .  S
C126        C127   1.403       .  A
C127        C128   1.397       .  A
C127        F582   1.358       .  S
C128        C129   1.408       .  A
C128        H133   1.083       .  S
C129        C130   1.410       .  A
C130        F131   1.357       .  S
F134        C575   1.358       .  S
C135        C136   1.406       .  A
C135        C140   1.404       .  A
C135        H142   1.083       .  S
C136        C137   1.407       .  A
C137        C138   1.395       .  A
C137        F144   1.358       .  S
C138        C139   1.403       .  A
C138        H143   1.084       .  S
C139        C140   1.407       .  A
C140        F589   1.356       .  S
F141        C588   1.356   1_545  S
C145        C146   1.401       .  A
C145        C150   1.399       .  A
C145        H152   1.082       .  S
C146       C1043   1.402       .  A
C147        C148   1.398       .  A
C147       C1042   1.402   1_455  A
C147        F154   1.354       .  S
C148        C149   1.408       .  A
C148        H153   1.083       .  S
C149       C1046   1.413   1_455  A
C150       C1045   1.413       .  A
C150        F151   1.357       .  S
C155        C156   1.404       .  A
C155       C1056   1.398       .  A
C155        H162   1.083       .  S
C156        C157   1.407   1_455  A
C157       C1054   1.397       .  A
C157        F164   1.356       .  S
C158        C159   1.403       .  A
C158       C1053   1.397       .  A
C158        H163   1.083       .  S
C159        C160   1.407       .  A
C160       C1051   1.398       .  A
C160        F161   1.356       .  S
C165        C166   1.407       .  A
C165        C170   1.394       .  A
C165        H172   1.083       .  S
C166        C167   1.414       .  A
C167        C168   1.402       .  A
C167        F174   1.357       .  S
C168        C169   1.400       .  A
C168        H173   1.083       .  S
C169        C170   1.400       .  A
C170        F171   1.357       .  S
C175        C176   1.398       .  A
C175        C180   1.399       .  A
C175        H182   1.083       .  S
C176        C177   1.398       .  A
C177        C178   1.393       .  A
C177        F184   1.358       .  S
C178        C179   1.411       .  A
C178        H183   1.082       .  S
C179        C180   1.416       .  A
C180        F181   1.355       .  S
C185        C186   1.406       .  A
C185        C190   1.396       .  A
C185        H192   1.083       .  S
C186        C187   1.412       .  A
C187        C188   1.399       .  A
C187        F194   1.357       .  S
C188        C189   1.400       .  A
C188        H193   1.082       .  S
C189        C190   1.401       .  A
C190        F191   1.356       .  S
C195        C196   1.400       .  A
C195        C200   1.400       .  A
C195        H202   1.084       .  S
C196        C197   1.402       .  A
C197        C198   1.396       .  A
C197        F204   1.357       .  S
C198        C199   1.406       .  A
C198        H203   1.083       .  S
C199        C200   1.412       .  A
C200        F201   1.357       .  S
C205        C206   1.407       .  A
C205        C210   1.400       .  A
C205        H212   1.083       .  S
C206        C207   1.411       .  A
C207        C208   1.394       .  A
C207        F214   1.358       .  S
C208        C209   1.398       .  A
C208        H213   1.084       .  S
C209        C210   1.402       .  A
C210        F211   1.356       .  S
C215        C216   1.403       .  A
C215        C220   1.398       .  A
C215        H222   1.084       .  S
C216        C217   1.405       .  A
C217        C218   1.397       .  A
C217        F224   1.357       .  S
C218        C219   1.406       .  A
C218        H223   1.083       .  S
C219        C220   1.410       .  A
C220        F221   1.358       .  S
C225        C226   1.401       .  A
C225        C230   1.400       .  A
C225        C323   1.476       .  S
C226        C227   1.403       .  A
C226        H231   1.084       .  S
C227        C228   1.403       .  A
C227        C440   1.478       .  S
C228        C229   1.400       .  A
C228        H232   1.084       .  S
C229        C230   1.398       .  A
C229        C433   1.468       .  S
C230        H233   1.084       .  S
C234        C235   1.400       .  A
C234        C239   1.400       .  A
C234        C413   1.471       .  S
C235        C236   1.401       .  A
C235        H240   1.084       .  S
C236        C237   1.401       .  A
C236        C420   1.472       .  S
C237        C238   1.403       .  A
C237        H241   1.084       .  S
C238        C239   1.402       .  A
C238        C327   1.478       .  S
C239        H242   1.084       .  S
Fe243       O259   2.063       .  S
Fe243       O249   2.061       .  S
Fe244       O255   2.062       .  S
Fe244       O260   2.065       .  S
Fe244       O254   1.983       .  S
Fe245       O250   2.062   1_554  S
Fe245       O246   2.068   1_554  S
Fe245       O254   1.980   1_554  S
O246        C253   1.270       .  A
O247        C261   1.268       .  A
O248        C253   1.268       .  A
O249        C252   1.268       .  A
O250        C262   1.267       .  A
O251        C264   1.267       .  A
C252        C423   1.483       .  S
C252        O257   1.269       .  A
C253        C410   1.482       .  S
O255        C258   1.267       .  A
O256        C258   1.266       .  A
C258        C400   1.462       .  S
O259        C264   1.269       .  A
O260        C262   1.269       .  A
C261        C430   1.480       .  S
C261        O263   1.270       .  A
C262        C443   1.482       .  S
C264        C390   1.486       .  S
C265        C266   1.410       .  A
C265        C270   1.408       .  A
C265        C403   1.495       .  S
C266        C267   1.398       .  A
C266        H271   1.083       .  S
C267        C268   1.397       .  A
C267        C393   1.471       .  S
C268       C1165   1.400       .  A
C268       H1168   1.084       .  S
C269       C1164   1.400       .  A
C269       C1166   1.403       .  A
C269        C325   1.478       .  S
C270       C1165   1.403       .  A
C270       H1169   1.081       .  S
H272       C1164   1.084       .  S
H273       C1166   1.081       .  S
Fe274       O290   2.051       .  S
Fe274       O280   2.076       .  S
Fe275       O286   2.054       .  S
Fe275       O291   2.078       .  S
Fe275       O285   1.978       .  S
Fe276       O281   2.059       .  S
Fe276       O277   2.081       .  S
Fe276       O285   1.973       .  S
O277        C284   1.272       .  A
O278        C292   1.268       .  A
O279        C284   1.267       .  A
O280        C283   1.269       .  A
O281        C293   1.269       .  A
O282        C295   1.273       .  A
C283        C333   1.473       .  S
C283        O288   1.267       .  A
C284        C340   1.486       .  S
O286        C289   1.267       .  A
O287        C289   1.270       .  A
C289        C353   1.484       .  S
O290        C295   1.268       .  A
O291        C293   1.273       .  A
C292        C380   1.478       .  S
C292        O294   1.269       .  A
C293        C373   1.488       .  S
C295        C360   1.478       .  S
C296        C297   1.401       .  A
C296        C301   1.402       .  A
C296        C326   1.481       .  S
C297        C298   1.403       .  A
C297        H302   1.084       .  S
C298        C299   1.405       .  A
C298        C383   1.481       .  S
C299        C300   1.402       .  A
C299        H303   1.084       .  S
C300        C301   1.404       .  A
C300        C370   1.479       .  S
C301        H304   1.084       .  S
C305        C306   1.403       .  A
C305        C758   1.399       .  A
C305        C350   1.477       .  S
C306        C307   1.404       .  A
C306        H311   1.084       .  S
C307        C756   1.404       .  A
C307        C363   1.480       .  S
C308        C755   1.404       .  A
C308        C309   1.404       .  A
C308        H312   1.084       .  S
C309        C310   1.400       .  A
C309        C328   1.477       .  S
C310        C753   1.399       .  A
C310        H313   1.084       .  S
C314        C315   1.403       .  A
C314       C1215   1.402   1_455  A
C314        C343   1.480       .  S
C315        C316   1.405       .  A
C315        H320   1.084       .  S
C316       C1213   1.402   1_455  A
C316        C330   1.483       .  S
C317       C1212   1.402       .  A
C317        C318   1.402       .  A
C317        H321   1.084       .  S
C318        C319   1.403       .  A
C318        C324   1.478       .  S
C319       C1210   1.402       .  A
C319        H322   1.084       .  S
C323        C324   1.408       .  A
C323        C328   1.408   1_545  A
C324        C325   1.409       .  A
C325        C774   1.411   1_545  A
C326        C773   1.411       .  A
C326        C327   1.411       .  A
C327        C776   1.408       .  A
C328        C775   1.408       .  A
C329        C330   1.404       .  A
C329        C334   1.393       .  A
C329        H336   1.083       .  S
C330        C331   1.409       .  A
C331        C332   1.401       .  A
C331       F1234   1.355       .  S
C332        C333   1.403       .  A
C332        H337   1.083       .  S
C333        C334   1.404       .  A
C334        F335   1.356       .  S
F338       C1227   1.355       .  S
C339        C340   1.407       .  A
C339       C1240   1.400   1_455  A
C339       H1242   1.083   1_455  S
C340        C341   1.411       .  A
C341        C342   1.397       .  A
C341        F348   1.358       .  S
C342        C343   1.402       .  A
C342        H347   1.084       .  S
C343       C1240   1.406   1_455  A
C344       C1235   1.400       .  A
C344       C1239   1.406       .  A
C344        F345   1.357       .  S
H346       C1235   1.083       .  S
C349        C350   1.402       .  A
C349        C354   1.398       .  A
C349        H356   1.083       .  S
C350        C351   1.403       .  A
C351        C352   1.397       .  A
C351        F806   1.358       .  S
C352        C353   1.408       .  A
C352        H357   1.083       .  S
C353        C354   1.410       .  A
C354        F355   1.357       .  S
F358        C799   1.358       .  S
C359        C360   1.406       .  A
C359        C364   1.404       .  A
C359        H366   1.083       .  S
C360        C361   1.407       .  A
C361        C362   1.395       .  A
C361        F368   1.358       .  S
C362        C363   1.403       .  A
C362        H367   1.084       .  S
C363        C364   1.407       .  A
C364        F813   1.356       .  S
F365        C812   1.356   1_545  S
C369        C370   1.401       .  A
C369        C374   1.399       .  A
C369        H376   1.082       .  S
C370       C1267   1.402       .  A
C371       C1266   1.402   1_455  A
C371        C372   1.398       .  A
C371        F378   1.354       .  S
C372        C373   1.408       .  A
C372        H377   1.083       .  S
C373       C1270   1.413   1_455  A
C374       C1269   1.413       .  A
C374        F375   1.357       .  S
C379        C380   1.404       .  A
C379       C1280   1.398       .  A
C379        H386   1.083       .  S
C380        C381   1.407   1_455  A
C381       C1278   1.397       .  A
C381        F388   1.356       .  S
C382       C1277   1.397       .  A
C382        C383   1.403       .  A
C382        H387   1.083       .  S
C383        C384   1.407       .  A
C384       C1275   1.398       .  A
C384        F385   1.356       .  S
C389        C390   1.407       .  A
C389        C394   1.394       .  A
C389        H396   1.083       .  S
C390        C391   1.414       .  A
C391        C392   1.402       .  A
C391        F398   1.357       .  S
C392        C393   1.400       .  A
C392        H397   1.083       .  S
C393        C394   1.400       .  A
C394        F395   1.357       .  S
C399        C400   1.398       .  A
C399        C404   1.399       .  A
C399        H406   1.083       .  S
C400        C401   1.398       .  A
C401        C402   1.393       .  A
C401        F408   1.358       .  S
C402        C403   1.411       .  A
C402        H407   1.082       .  S
C403        C404   1.416       .  A
C404        F405   1.355       .  S
C409        C410   1.406       .  A
C409        C414   1.396       .  A
C409        H416   1.083       .  S
C410        C411   1.412       .  A
C411        C412   1.399       .  A
C411        F418   1.357       .  S
C412        C413   1.400       .  A
C412        H417   1.082       .  S
C413        C414   1.401       .  A
C414        F415   1.356       .  S
C419        C420   1.400       .  A
C419        C424   1.400       .  A
C419        H426   1.084       .  S
C420        C421   1.402       .  A
C421        C422   1.396       .  A
C421        F428   1.357       .  S
C422        C423   1.406       .  A
C422        H427   1.083       .  S
C423        C424   1.412       .  A
C424        F425   1.357       .  S
C429        C430   1.407       .  A
C429        C434   1.400       .  A
C429        H436   1.083       .  S
C430        C431   1.411       .  A
C431        C432   1.394       .  A
C431        F438   1.358       .  S
C432        C433   1.398       .  A
C432        H437   1.084       .  S
C433        C434   1.402       .  A
C434        F435   1.356       .  S
C439        C440   1.403       .  A
C439        C444   1.398       .  A
C439        H446   1.084       .  S
C440        C441   1.405       .  A
C441        C442   1.397       .  A
C441        F448   1.357       .  S
C442        C443   1.406       .  A
C442        H447   1.083       .  S
C443        C444   1.410       .  A
C444        F445   1.358       .  S
C449        C450   1.401       .  A
C449        C454   1.400       .  A
C449        C547   1.476       .  S
C450        C451   1.403       .  A
C450        H455   1.084       .  S
C451        C452   1.403       .  A
C451        C664   1.478       .  S
C452        C453   1.400       .  A
C452        H456   1.084       .  S
C453        C454   1.398       .  A
C453        C657   1.468       .  S
C454        H457   1.084       .  S
C458        C459   1.400       .  A
C458        C463   1.400       .  A
C458        C637   1.471       .  S
C459        C460   1.401       .  A
C459        H464   1.084       .  S
C460        C461   1.401       .  A
C460        C644   1.472       .  S
C461        C462   1.403       .  A
C461        H465   1.084       .  S
C462        C463   1.402       .  A
C462        C551   1.478       .  S
C463        H466   1.084       .  S
Fe467       O483   2.063       .  S
Fe467       O473   2.061       .  S
Fe467       O704   2.058   1_554  S
Fe467       O696   2.059   1_554  S
Fe467       O702   1.979   1_554  S
Fe468       O695   2.054       .  S
Fe468       O699   2.064       .  S
Fe468       O479   2.062       .  S
Fe468       O484   2.065       .  S
Fe468       O478   1.983       .  S
Fe469       O711   2.070       .  S
Fe469       O474   2.062       .  S
Fe469       O705   2.067       .  S
Fe469       O470   2.068       .  S
Fe469       O478   1.980       .  S
O470        C477   1.270       .  A
O471       Fe692   2.054   1_554  S
O471        C485   1.268       .  A
O472       Fe691   2.059       .  S
O472        C477   1.268       .  A
O473        C476   1.268       .  A
O474        C486   1.267       .  A
O475       Fe692   2.064   1_554  S
O475        C488   1.267       .  A
C476        C647   1.483       .  S
C476        O481   1.269       .  A
C477        C634   1.482       .  S
O478       Fe691   1.979       .  S
O479        C482   1.267       .  A
O480       Fe691   2.058       .  S
O480        C482   1.266       .  A
O481       Fe693   2.067       .  S
C482        C624   1.462       .  S
O483        C488   1.269       .  A
O484        C486   1.269       .  A
C485        C654   1.480       .  S
C485        O487   1.270       .  A
C486        C667   1.482       .  S
O487       Fe693   2.070       .  S
C488        C614   1.486       .  S
C489        C490   1.410       .  A
C489        C494   1.408       .  A
C489        C627   1.495       .  S
C490        C491   1.398       .  A
C490        H495   1.083       .  S
C491        C492   1.397       .  A
C491        C617   1.471       .  S
C492       C1389   1.400       .  A
C492       H1392   1.084       .  S
C493       C1388   1.400       .  A
C493       C1390   1.403       .  A
C493        C549   1.478       .  S
C494       C1389   1.403       .  A
C494       H1393   1.081       .  S
H496       C1388   1.084       .  S
H497       C1390   1.081       .  S
Fe498       O514   2.051       .  S
Fe498       O504   2.076       .  S
Fe498       O735   2.072   1_554  S
Fe498       O727   2.053   1_554  S
Fe498       O733   1.973   1_554  S
Fe499       O726   2.058       .  S
Fe499       O730   2.088       .  S
Fe499       O510   2.054       .  S
Fe499       O515   2.078       .  S
Fe499       O509   1.978       .  S
Fe500       O742   2.070       .  S
Fe500       O505   2.059       .  S
Fe500       O736   2.054       .  S
Fe500       O501   2.081       .  S
Fe500       O509   1.973       .  S
O501        C508   1.272       .  A
O502       Fe723   2.058   1_554  S
O502        C516   1.268       .  A
O503       Fe722   2.053       .  S
O503        C508   1.267       .  A
O504        C507   1.269       .  A
O505        C517   1.269       .  A
O506       Fe723   2.088   1_554  S
O506        C519   1.273       .  A
C507        C557   1.473       .  S
C507        O512   1.267       .  A
C508        C564   1.486       .  S
O509       Fe722   1.973       .  S
O510        C513   1.267       .  A
O511       Fe722   2.072       .  S
O511        C513   1.270       .  A
O512       Fe724   2.054   1_554  S
C513        C577   1.484       .  S
O514        C519   1.268       .  A
O515        C517   1.273       .  A
C516        C604   1.478       .  S
C516        O518   1.269       .  A
C517        C597   1.488       .  S
O518       Fe724   2.070   1_554  S
C519        C584   1.478       .  S
C520        C521   1.401       .  A
C520        C525   1.402       .  A
C520        C550   1.481       .  S
C521        C522   1.403       .  A
C521        H526   1.084       .  S
C522        C523   1.405       .  A
C522        C607   1.481       .  S
C523        C524   1.402       .  A
C523        H527   1.084       .  S
C524        C525   1.404       .  A
C524        C594   1.479       .  S
C525        H528   1.084       .  S
C529        C530   1.403       .  A
C529        C574   1.477       .  S
C530        C531   1.404       .  A
C530        H535   1.084       .  S
C531        C587   1.480       .  S
C532        C533   1.404       .  A
C532        H536   1.084       .  S
C533        C534   1.400       .  A
C533        C552   1.477       .  S
C534        H537   1.084       .  S
C538        C539   1.403       .  A
C538       C1439   1.402   1_455  A
C538        C567   1.480       .  S
C539        C540   1.405       .  A
C539        H544   1.084       .  S
C540       C1437   1.402   1_455  A
C540        C554   1.483       .  S
C541       C1436   1.402       .  A
C541        C542   1.402       .  A
C541        H545   1.084       .  S
C542        C543   1.403       .  A
C542        C548   1.478       .  S
C543       C1434   1.402       .  A
C543        H546   1.084       .  S
C547        C548   1.408       .  A
C547        C552   1.408       .  A
C548        C549   1.409       .  A
C550        C551   1.411       .  A
C553        C554   1.404       .  A
C553        C558   1.393       .  A
C553        H560   1.083       .  S
C554        C555   1.409       .  A
C555        C556   1.401       .  A
C555       F1458   1.355       .  S
C556        C557   1.403       .  A
C556        H561   1.083       .  S
C557        C558   1.404       .  A
C558        F559   1.356       .  S
F562       C1451   1.355       .  S
C563        C564   1.407       .  A
C563       C1464   1.400   1_455  A
C563       H1466   1.083   1_455  S
C564        C565   1.411       .  A
C565        C566   1.397       .  A
C565        F572   1.358       .  S
C566        C567   1.402       .  A
C566        H571   1.084       .  S
C567       C1464   1.406   1_455  A
C568       C1459   1.400       .  A
C568       C1463   1.406       .  A
C568        F569   1.357       .  S
H570       C1459   1.083       .  S
C573        C574   1.402       .  A
C573        C578   1.398       .  A
C573        H580   1.083       .  S
C574        C575   1.403       .  A
C575        C576   1.397       .  A
C576        C577   1.408       .  A
C576        H581   1.083       .  S
C577        C578   1.410       .  A
C578        F579   1.357       .  S
C583        C584   1.406       .  A
C583        C588   1.404       .  A
C583        H590   1.083       .  S
C584        C585   1.407       .  A
C585        C586   1.395       .  A
C585        F592   1.358       .  S
C586        C587   1.403       .  A
C586        H591   1.084       .  S
C587        C588   1.407       .  A
C593        C594   1.401       .  A
C593        C598   1.399       .  A
C593        H600   1.082       .  S
C594       C1491   1.402       .  A
C595       C1490   1.402   1_455  A
C595        C596   1.398       .  A
C595        F602   1.354       .  S
C596        C597   1.408       .  A
C596        H601   1.083       .  S
C597       C1494   1.413   1_455  A
C598       C1493   1.413       .  A
C598        F599   1.357       .  S
C603        C604   1.404       .  A
C603       C1504   1.398       .  A
C603        H610   1.083       .  S
C604        C605   1.407   1_455  A
C605       C1502   1.397       .  A
C605        F612   1.356       .  S
C606       C1501   1.397       .  A
C606        C607   1.403       .  A
C606        H611   1.083       .  S
C607        C608   1.407       .  A
C608       C1499   1.398       .  A
C608        F609   1.356       .  S
C613        C614   1.407       .  A
C613        C618   1.394       .  A
C613        H620   1.083       .  S
C614        C615   1.414       .  A
C615        C616   1.402       .  A
C615        F622   1.357       .  S
C616        C617   1.400       .  A
C616        H621   1.083       .  S
C617        C618   1.400       .  A
C618        F619   1.357       .  S
C623        C624   1.398       .  A
C623        C628   1.399       .  A
C623        H630   1.083       .  S
C624        C625   1.398       .  A
C625        C626   1.393       .  A
C625        F632   1.358       .  S
C626        C627   1.411       .  A
C626        H631   1.082       .  S
C627        C628   1.416       .  A
C628        F629   1.355       .  S
C633        C634   1.406       .  A
C633        C638   1.396       .  A
C633        H640   1.083       .  S
C634        C635   1.412       .  A
C635        C636   1.399       .  A
C635        F642   1.357       .  S
C636        C637   1.400       .  A
C636        H641   1.082       .  S
C637        C638   1.401       .  A
C638        F639   1.356       .  S
C643        C644   1.400       .  A
C643        C648   1.400       .  A
C643        H650   1.084       .  S
C644        C645   1.402       .  A
C645        C646   1.396       .  A
C645        F652   1.357       .  S
C646        C647   1.406       .  A
C646        H651   1.083       .  S
C647        C648   1.412       .  A
C648        F649   1.357       .  S
C653        C654   1.407       .  A
C653        C658   1.400       .  A
C653        H660   1.083       .  S
C654        C655   1.411       .  A
C655        C656   1.394       .  A
C655        F662   1.358       .  S
C656        C657   1.398       .  A
C656        H661   1.084       .  S
C657        C658   1.402       .  A
C658        F659   1.356       .  S
C663        C664   1.403       .  A
C663        C668   1.398       .  A
C663        H670   1.084       .  S
C664        C665   1.405       .  A
C665        C666   1.397       .  A
C665        F672   1.357       .  S
C666        C667   1.406       .  A
C666        H671   1.083       .  S
C667        C668   1.410       .  A
C668        F669   1.358       .  S
C673        C674   1.401       .  A
C673        C678   1.400       .  A
C673        C771   1.476       .  S
C674        C675   1.403       .  A
C674        H679   1.084       .  S
C675        C676   1.403       .  A
C675        C888   1.478       .  S
C676        C677   1.400       .  A
C676        H680   1.084       .  S
C677        C678   1.398       .  A
C677        C881   1.468       .  S
C678        H681   1.084       .  S
C682        C683   1.400       .  A
C682        C687   1.400       .  A
C682        C861   1.471       .  S
C683        C684   1.401       .  A
C683        H688   1.084       .  S
C684        C685   1.401       .  A
C684        C868   1.472       .  S
C685        C686   1.403       .  A
C685        H689   1.084       .  S
C686        C687   1.402       .  A
C686        C775   1.478       .  S
C687        H690   1.084       .  S
Fe691       O707   2.063       .  S
Fe691       O697   2.061       .  S
Fe692       O703   2.062       .  S
Fe692       O708   2.065       .  S
Fe692       O702   1.983       .  S
Fe693       O698   2.062   1_554  S
Fe693       O694   2.068   1_554  S
Fe693       O702   1.980   1_554  S
O694        C701   1.270       .  A
O695        C709   1.268       .  A
O696        C701   1.268       .  A
O697        C700   1.268       .  A
O698        C710   1.267       .  A
O699        C712   1.267       .  A
C700        C871   1.483       .  S
C700        O705   1.269       .  A
C701        C858   1.482       .  S
O703        C706   1.267       .  A
O704        C706   1.266       .  A
C706        C848   1.462       .  S
O707        C712   1.269       .  A
O708        C710   1.269       .  A
C709        C878   1.480       .  S
C709        O711   1.270       .  A
C710        C891   1.482       .  S
C712        C838   1.486       .  S
C713        C714   1.410       .  A
C713        C718   1.408       .  A
C713        C851   1.495       .  S
C714        C715   1.398       .  A
C714        H719   1.083       .  S
C715        C716   1.397       .  A
C715        C841   1.471       .  S
C716       C1613   1.400       .  A
C716       H1616   1.084       .  S
C717       C1612   1.400       .  A
C717       C1614   1.403       .  A
C717        C773   1.478       .  S
C718       C1613   1.403       .  A
C718       H1617   1.081       .  S
H720       C1612   1.084       .  S
H721       C1614   1.081       .  S
Fe722       O738   2.051       .  S
Fe722       O728   2.076       .  S
Fe723       O734   2.054       .  S
Fe723       O739   2.078       .  S
Fe723       O733   1.978       .  S
Fe724       O729   2.059       .  S
Fe724       O725   2.081       .  S
Fe724       O733   1.973       .  S
O725        C732   1.272       .  A
O726        C740   1.268       .  A
O727        C732   1.267       .  A
O728        C731   1.269       .  A
O729        C741   1.269       .  A
O730        C743   1.273       .  A
C731        C781   1.473       .  S
C731        O736   1.267       .  A
C732        C788   1.486       .  S
O734        C737   1.267       .  A
O735        C737   1.270       .  A
C737        C801   1.484       .  S
O738        C743   1.268       .  A
O739        C741   1.273       .  A
C740        C828   1.478       .  S
C740        O742   1.269       .  A
C741        C821   1.488       .  S
C743        C808   1.478       .  S
C744        C745   1.401       .  A
C744        C749   1.402       .  A
C744        C774   1.481       .  S
C745        C746   1.403       .  A
C745        H750   1.084       .  S
C746        C747   1.405       .  A
C746        C831   1.481       .  S
C747        C748   1.402       .  A
C747        H751   1.084       .  S
C748        C749   1.404       .  A
C748        C818   1.479       .  S
C749        H752   1.084       .  S
C753        C754   1.403       .  A
C753        C798   1.477       .  S
C754        C755   1.404       .  A
C754        H759   1.084       .  S
C755        C811   1.480       .  S
C756        C757   1.404       .  A
C756        H760   1.084       .  S
C757        C758   1.400       .  A
C757        C776   1.477       .  S
C758        H761   1.084       .  S
C762        C763   1.403       .  A
C762       C1663   1.402   1_455  A
C762        C791   1.480       .  S
C763        C764   1.405       .  A
C763        H768   1.084       .  S
C764       C1661   1.402   1_455  A
C764        C778   1.483       .  S
C765       C1660   1.402       .  A
C765        C766   1.402       .  A
C765        H769   1.084       .  S
C766        C767   1.403       .  A
C766        C772   1.478       .  S
C767       C1658   1.402       .  A
C767        H770   1.084       .  S
C771        C772   1.408       .  A
C771        C776   1.408       .  A
C772        C773   1.409       .  A
C774        C775   1.411       .  A
C777        C778   1.404       .  A
C777        C782   1.393       .  A
C777        H784   1.083       .  S
C778        C779   1.409       .  A
C779        C780   1.401       .  A
C779       F1682   1.355       .  S
C780        C781   1.403       .  A
C780        H785   1.083       .  S
C781        C782   1.404       .  A
C782        F783   1.356       .  S
F786       C1675   1.355       .  S
C787        C788   1.407       .  A
C787       C1688   1.400   1_455  A
C787       H1690   1.083   1_455  S
C788        C789   1.411       .  A
C789        C790   1.397       .  A
C789        F796   1.358       .  S
C790        C791   1.402       .  A
C790        H795   1.084       .  S
C791       C1688   1.406   1_455  A
C792       C1683   1.400       .  A
C792       C1687   1.406       .  A
C792        F793   1.357       .  S
H794       C1683   1.083       .  S
C797        C798   1.402       .  A
C797        C802   1.398       .  A
C797        H804   1.083       .  S
C798        C799   1.403       .  A
C799        C800   1.397       .  A
C800        C801   1.408       .  A
C800        H805   1.083       .  S
C801        C802   1.410       .  A
C802        F803   1.357       .  S
C807        C808   1.406       .  A
C807        C812   1.404       .  A
C807        H814   1.083       .  S
C808        C809   1.407       .  A
C809        C810   1.395       .  A
C809        F816   1.358       .  S
C810        C811   1.403       .  A
C810        H815   1.084       .  S
C811        C812   1.407       .  A
C817        C818   1.401       .  A
C817        C822   1.399       .  A
C817        H824   1.082       .  S
C818       C1715   1.402       .  A
C819       C1714   1.402   1_455  A
C819        C820   1.398       .  A
C819        F826   1.354       .  S
C820        C821   1.408       .  A
C820        H825   1.083       .  S
C821       C1718   1.413   1_455  A
C822       C1717   1.413       .  A
C822        F823   1.357       .  S
C827        C828   1.404       .  A
C827       C1728   1.398       .  A
C827        H834   1.083       .  S
C828        C829   1.407   1_455  A
C829       C1726   1.397       .  A
C829        F836   1.356       .  S
C830       C1725   1.397       .  A
C830        C831   1.403       .  A
C830        H835   1.083       .  S
C831        C832   1.407       .  A
C832       C1723   1.398       .  A
C832        F833   1.356       .  S
C837        C838   1.407       .  A
C837        C842   1.394       .  A
C837        H844   1.083       .  S
C838        C839   1.414       .  A
C839        C840   1.402       .  A
C839        F846   1.357       .  S
C840        C841   1.400       .  A
C840        H845   1.083       .  S
C841        C842   1.400       .  A
C842        F843   1.357       .  S
C847        C848   1.398       .  A
C847        C852   1.399       .  A
C847        H854   1.083       .  S
C848        C849   1.398       .  A
C849        C850   1.393       .  A
C849        F856   1.358       .  S
C850        C851   1.411       .  A
C850        H855   1.082       .  S
C851        C852   1.416       .  A
C852        F853   1.355       .  S
C857        C858   1.406       .  A
C857        C862   1.396       .  A
C857        H864   1.083       .  S
C858        C859   1.412       .  A
C859        C860   1.399       .  A
C859        F866   1.357       .  S
C860        C861   1.400       .  A
C860        H865   1.082       .  S
C861        C862   1.401       .  A
C862        F863   1.356       .  S
C867        C868   1.400       .  A
C867        C872   1.400       .  A
C867        H874   1.084       .  S
C868        C869   1.402       .  A
C869        C870   1.396       .  A
C869        F876   1.357       .  S
C870        C871   1.406       .  A
C870        H875   1.083       .  S
C871        C872   1.412       .  A
C872        F873   1.357       .  S
C877        C878   1.407       .  A
C877        C882   1.400       .  A
C877        H884   1.083       .  S
C878        C879   1.411       .  A
C879        C880   1.394       .  A
C879        F886   1.358       .  S
C880        C881   1.398       .  A
C880        H885   1.084       .  S
C881        C882   1.402       .  A
C882        F883   1.356       .  S
C887        C888   1.403       .  A
C887        C892   1.398       .  A
C887        H894   1.084       .  S
C888        C889   1.405       .  A
C889        C890   1.397       .  A
C889        F896   1.357       .  S
C890        C891   1.406       .  A
C890        H895   1.083       .  S
C891        C892   1.410       .  A
C892        F893   1.358       .  S
C897        C898   1.401       .  A
C897        C902   1.400       .  A
C897        C995   1.476       .  S
C898        C899   1.403       .  A
C898        H903   1.084       .  S
C899        C900   1.403       .  A
C899       C1112   1.478       .  S
C900        C901   1.400       .  A
C900        H904   1.084       .  S
C901        C902   1.398       .  A
C901       C1105   1.468       .  S
C902        H905   1.084       .  S
C906        C907   1.400       .  A
C906        C911   1.400       .  A
C906       C1085   1.471       .  S
C907        C908   1.401       .  A
C907        H912   1.084       .  S
C908        C909   1.401       .  A
C908       C1092   1.472       .  S
C909        C910   1.403       .  A
C909        H913   1.084       .  S
C910        C911   1.402       .  A
C910        C999   1.478       .  S
C911        H914   1.084       .  S
Fe915       O931   2.063       .  S
Fe915       O921   2.061       .  S
Fe915      O1152   2.058   1_554  S
Fe915      O1144   2.059   1_554  S
Fe915      O1150   1.979   1_554  S
Fe916      O1143   2.054       .  S
Fe916      O1147   2.064       .  S
Fe916       O927   2.062       .  S
Fe916       O932   2.065       .  S
Fe916       O926   1.983       .  S
Fe917      O1159   2.070       .  S
Fe917       O922   2.062       .  S
Fe917      O1153   2.067       .  S
Fe917       O918   2.068       .  S
Fe917       O926   1.980       .  S
O918        C925   1.270       .  A
O919      Fe1140   2.054   1_554  S
O919        C933   1.268       .  A
O920      Fe1139   2.059       .  S
O920        C925   1.268       .  A
O921        C924   1.268       .  A
O922        C934   1.267       .  A
O923      Fe1140   2.064   1_554  S
O923        C936   1.267       .  A
C924       C1095   1.483       .  S
C924        O929   1.269       .  A
C925       C1082   1.482       .  S
O926      Fe1139   1.979       .  S
O927        C930   1.267       .  A
O928      Fe1139   2.058       .  S
O928        C930   1.266       .  A
O929      Fe1141   2.067       .  S
C930       C1072   1.462       .  S
O931        C936   1.269       .  A
O932        C934   1.269       .  A
C933       C1102   1.480       .  S
C933        O935   1.270       .  A
C934       C1115   1.482       .  S
O935      Fe1141   2.070       .  S
C936       C1062   1.486       .  S
C937        C938   1.410       .  A
C937        C942   1.408       .  A
C937       C1075   1.495       .  S
C938        C939   1.398       .  A
C938        H943   1.083       .  S
C939        C940   1.397       .  A
C939       C1065   1.471       .  S
C941        C997   1.478   1_455  S
Fe946       O962   2.051       .  S
Fe946       O952   2.076       .  S
Fe946      O1183   2.072   1_554  S
Fe946      O1175   2.053   1_554  S
Fe946      O1181   1.973   1_554  S
Fe947      O1174   2.058       .  S
Fe947      O1178   2.088       .  S
Fe947       O958   2.054       .  S
Fe947       O963   2.078       .  S
Fe947       O957   1.978       .  S
Fe948      O1190   2.070       .  S
Fe948       O953   2.059       .  S
Fe948      O1184   2.054       .  S
Fe948       O949   2.081       .  S
Fe948       O957   1.973       .  S
O949        C956   1.272       .  A
O950      Fe1171   2.058   1_554  S
O950        C964   1.268       .  A
O951      Fe1170   2.053       .  S
O951        C956   1.267       .  A
O952        C955   1.269       .  A
O953        C965   1.269       .  A
O954      Fe1171   2.088   1_554  S
O954        C967   1.273       .  A
C955       C1005   1.473       .  S
C955        O960   1.267       .  A
C956       C1012   1.486       .  S
O957      Fe1170   1.973       .  S
O958        C961   1.267       .  A
O959      Fe1170   2.072       .  S
O959        C961   1.270       .  A
O960      Fe1172   2.054   1_554  S
C961       C1025   1.484       .  S
O962        C967   1.268       .  A
O963        C965   1.273       .  A
C964       C1052   1.478       .  S
C964        O966   1.269       .  A
C965       C1045   1.488       .  S
O966      Fe1172   2.070   1_554  S
C967       C1032   1.478       .  S
C968        C969   1.401       .  A
C968        C973   1.402       .  A
C968        C998   1.481       .  S
C969        C970   1.403       .  A
C969        H974   1.084       .  S
C970        C971   1.405       .  A
C970       C1055   1.481       .  S
C971        C972   1.402       .  A
C971        H975   1.084       .  S
C972        C973   1.404       .  A
C972       C1042   1.479       .  S
C973        H976   1.084       .  S
C977        C978   1.403       .  A
C977       C1430   1.399       .  A
C977       C1022   1.477       .  S
C978        C979   1.404       .  A
C978        H983   1.084       .  S
C979       C1428   1.404       .  A
C979       C1035   1.480       .  S
C980       C1427   1.404       .  A
C980        C981   1.404       .  A
C980        H984   1.084       .  S
C981        C982   1.400       .  A
C981       C1000   1.477       .  S
C982       C1425   1.399       .  A
C982        H985   1.084       .  S
C986        C987   1.403       .  A
C986       C1015   1.480       .  S
C987        C988   1.405       .  A
C987        H992   1.084       .  S
C988       C1002   1.483       .  S
C989        C990   1.402       .  A
C989        H993   1.084       .  S
C990        C991   1.403       .  A
C990        C996   1.478       .  S
C991        H994   1.084       .  S
C995        C996   1.408       .  A
C995       C1000   1.408   1_545  A
C996        C997   1.409       .  A
C997       C1446   1.411   1_545  A
C998       C1445   1.411       .  A
C998        C999   1.411       .  A
C999       C1448   1.408       .  A
C1000      C1447   1.408       .  A
C1001      C1002   1.404       .  A
C1001      C1006   1.393       .  A
C1001      H1008   1.083       .  S
C1002      C1003   1.409       .  A
C1003      C1004   1.401       .  A
C1004      C1005   1.403       .  A
C1004      H1009   1.083       .  S
C1005      C1006   1.404       .  A
C1006      F1007   1.356       .  S
C1011      C1012   1.407       .  A
C1012      C1013   1.411       .  A
C1013      C1014   1.397       .  A
C1013      F1020   1.358       .  S
C1014      C1015   1.402       .  A
C1014      H1019   1.084       .  S
C1016      F1017   1.357       .  S
C1021      C1022   1.402       .  A
C1021      C1026   1.398       .  A
C1021      H1028   1.083       .  S
C1022      C1023   1.403       .  A
C1023      C1024   1.397       .  A
C1023      F1478   1.358       .  S
C1024      C1025   1.408       .  A
C1024      H1029   1.083       .  S
C1025      C1026   1.410       .  A
C1026      F1027   1.357       .  S
F1030      C1471   1.358       .  S
C1031      C1032   1.406       .  A
C1031      C1036   1.404       .  A
C1031      H1038   1.083       .  S
C1032      C1033   1.407       .  A
C1033      C1034   1.395       .  A
C1033      F1040   1.358       .  S
C1034      C1035   1.403       .  A
C1034      H1039   1.084       .  S
C1035      C1036   1.407       .  A
C1036      F1485   1.356       .  S
F1037      C1484   1.356   1_545  S
C1041      C1042   1.401       .  A
C1041      C1046   1.399       .  A
C1041      H1048   1.082       .  S
C1043      C1044   1.398       .  A
C1043      F1050   1.354       .  S
C1044      C1045   1.408       .  A
C1044      H1049   1.083       .  S
C1046      F1047   1.357       .  S
C1051      C1052   1.404       .  A
C1051      H1058   1.083       .  S
C1052      C1053   1.407       .  A
C1053      F1060   1.356       .  S
C1054      C1055   1.403       .  A
C1054      H1059   1.083       .  S
C1055      C1056   1.407   1_655  A
C1056      F1057   1.356       .  S
C1061      C1062   1.407       .  A
C1061      C1066   1.394       .  A
C1061      H1068   1.083       .  S
C1062      C1063   1.414       .  A
C1063      C1064   1.402       .  A
C1063      F1070   1.357       .  S
C1064      C1065   1.400       .  A
C1064      H1069   1.083       .  S
C1065      C1066   1.400       .  A
C1066      F1067   1.357       .  S
C1071      C1072   1.398       .  A
C1071      C1076   1.399       .  A
C1071      H1078   1.083       .  S
C1072      C1073   1.398       .  A
C1073      C1074   1.393       .  A
C1073      F1080   1.358       .  S
C1074      C1075   1.411       .  A
C1074      H1079   1.082       .  S
C1075      C1076   1.416       .  A
C1076      F1077   1.355       .  S
C1081      C1082   1.406       .  A
C1081      C1086   1.396       .  A
C1081      H1088   1.083       .  S
C1082      C1083   1.412       .  A
C1083      C1084   1.399       .  A
C1083      F1090   1.357       .  S
C1084      C1085   1.400       .  A
C1084      H1089   1.082       .  S
C1085      C1086   1.401       .  A
C1086      F1087   1.356       .  S
C1091      C1092   1.400       .  A
C1091      C1096   1.400       .  A
C1091      H1098   1.084       .  S
C1092      C1093   1.402       .  A
C1093      C1094   1.396       .  A
C1093      F1100   1.357       .  S
C1094      C1095   1.406       .  A
C1094      H1099   1.083       .  S
C1095      C1096   1.412       .  A
C1096      F1097   1.357       .  S
C1101      C1102   1.407       .  A
C1101      C1106   1.400       .  A
C1101      H1108   1.083       .  S
C1102      C1103   1.411       .  A
C1103      C1104   1.394       .  A
C1103      F1110   1.358       .  S
C1104      C1105   1.398       .  A
C1104      H1109   1.084       .  S
C1105      C1106   1.402       .  A
C1106      F1107   1.356       .  S
C1111      C1112   1.403       .  A
C1111      C1116   1.398       .  A
C1111      H1118   1.084       .  S
C1112      C1113   1.405       .  A
C1113      C1114   1.397       .  A
C1113      F1120   1.357       .  S
C1114      C1115   1.406       .  A
C1114      H1119   1.083       .  S
C1115      C1116   1.410       .  A
C1116      F1117   1.358       .  S
C1121      C1122   1.401       .  A
C1121      C1126   1.400       .  A
C1121      C1219   1.476       .  S
C1122      C1123   1.403       .  A
C1122      H1127   1.084       .  S
C1123      C1124   1.403       .  A
C1123      C1336   1.478       .  S
C1124      C1125   1.400       .  A
C1124      H1128   1.084       .  S
C1125      C1126   1.398       .  A
C1125      C1329   1.468       .  S
C1126      H1129   1.084       .  S
C1130      C1131   1.400       .  A
C1130      C1135   1.400       .  A
C1130      C1309   1.471       .  S
C1131      C1132   1.401       .  A
C1131      H1136   1.084       .  S
C1132      C1133   1.401       .  A
C1132      C1316   1.472       .  S
C1133      C1134   1.403       .  A
C1133      H1137   1.084       .  S
C1134      C1135   1.402       .  A
C1134      C1223   1.478       .  S
C1135      H1138   1.084       .  S
Fe1139     O1155   2.063       .  S
Fe1139     O1145   2.061       .  S
Fe1140     O1151   2.062       .  S
Fe1140     O1156   2.065       .  S
Fe1140     O1150   1.983       .  S
Fe1141     O1146   2.062   1_554  S
Fe1141     O1142   2.068   1_554  S
Fe1141     O1150   1.980   1_554  S
O1142      C1149   1.270       .  A
O1143      C1157   1.268       .  A
O1144      C1149   1.268       .  A
O1145      C1148   1.268       .  A
O1146      C1158   1.267       .  A
O1147      C1160   1.267       .  A
C1148      C1319   1.483       .  S
C1148      O1153   1.269       .  A
C1149      C1306   1.482       .  S
O1151      C1154   1.267       .  A
O1152      C1154   1.266       .  A
C1154      C1296   1.462       .  S
O1155      C1160   1.269       .  A
O1156      C1158   1.269       .  A
C1157      C1326   1.480       .  S
C1157      O1159   1.270       .  A
C1158      C1339   1.482       .  S
C1160      C1286   1.486       .  S
C1161      C1162   1.410       .  A
C1161      C1166   1.408       .  A
C1161      C1299   1.495       .  S
C1162      C1163   1.398       .  A
C1162      H1167   1.083       .  S
C1163      C1164   1.397       .  A
C1163      C1289   1.471       .  S
C1165      C1221   1.478   1_455  S
Fe1170     O1186   2.051       .  S
Fe1170     O1176   2.076       .  S
Fe1171     O1182   2.054       .  S
Fe1171     O1187   2.078       .  S
Fe1171     O1181   1.978       .  S
Fe1172     O1177   2.059       .  S
Fe1172     O1173   2.081       .  S
Fe1172     O1181   1.973       .  S
O1173      C1180   1.272       .  A
O1174      C1188   1.268       .  A
O1175      C1180   1.267       .  A
O1176      C1179   1.269       .  A
O1177      C1189   1.269       .  A
O1178      C1191   1.273       .  A
C1179      C1229   1.473       .  S
C1179      O1184   1.267       .  A
C1180      C1236   1.486       .  S
O1182      C1185   1.267       .  A
O1183      C1185   1.270       .  A
C1185      C1249   1.484       .  S
O1186      C1191   1.268       .  A
O1187      C1189   1.273       .  A
C1188      C1276   1.478       .  S
C1188      O1190   1.269       .  A
C1189      C1269   1.488       .  S
C1191      C1256   1.478       .  S
C1192      C1193   1.401       .  A
C1192      C1197   1.402       .  A
C1192      C1222   1.481       .  S
C1193      C1194   1.403       .  A
C1193      H1198   1.084       .  S
C1194      C1195   1.405       .  A
C1194      C1279   1.481       .  S
C1195      C1196   1.402       .  A
C1195      H1199   1.084       .  S
C1196      C1197   1.404       .  A
C1196      C1266   1.479       .  S
C1197      H1200   1.084       .  S
C1201      C1202   1.403       .  A
C1201      C1654   1.399       .  A
C1201      C1246   1.477       .  S
C1202      C1203   1.404       .  A
C1202      H1207   1.084       .  S
C1203      C1652   1.404       .  A
C1203      C1259   1.480       .  S
C1204      C1651   1.404       .  A
C1204      C1205   1.404       .  A
C1204      H1208   1.084       .  S
C1205      C1206   1.400       .  A
C1205      C1224   1.477       .  S
C1206      C1649   1.399       .  A
C1206      H1209   1.084       .  S
C1210      C1211   1.403       .  A
C1210      C1239   1.480       .  S
C1211      C1212   1.405       .  A
C1211      H1216   1.084       .  S
C1212      C1226   1.483       .  S
C1213      C1214   1.402       .  A
C1213      H1217   1.084       .  S
C1214      C1215   1.403       .  A
C1214      C1220   1.478       .  S
C1215      H1218   1.084       .  S
C1219      C1220   1.408       .  A
C1219      C1224   1.408   1_545  A
C1220      C1221   1.409       .  A
C1221      C1670   1.411   1_545  A
C1222      C1669   1.411       .  A
C1222      C1223   1.411       .  A
C1223      C1672   1.408       .  A
C1224      C1671   1.408       .  A
C1225      C1226   1.404       .  A
C1225      C1230   1.393       .  A
C1225      H1232   1.083       .  S
C1226      C1227   1.409       .  A
C1227      C1228   1.401       .  A
C1228      C1229   1.403       .  A
C1228      H1233   1.083       .  S
C1229      C1230   1.404       .  A
C1230      F1231   1.356       .  S
C1235      C1236   1.407       .  A
C1236      C1237   1.411       .  A
C1237      C1238   1.397       .  A
C1237      F1244   1.358       .  S
C1238      C1239   1.402       .  A
C1238      H1243   1.084       .  S
C1240      F1241   1.357       .  S
C1245      C1246   1.402       .  A
C1245      C1250   1.398       .  A
C1245      H1252   1.083       .  S
C1246      C1247   1.403       .  A
C1247      C1248   1.397       .  A
C1247      F1702   1.358       .  S
C1248      C1249   1.408       .  A
C1248      H1253   1.083       .  S
C1249      C1250   1.410       .  A
C1250      F1251   1.357       .  S
F1254      C1695   1.358       .  S
C1255      C1256   1.406       .  A
C1255      C1260   1.404       .  A
C1255      H1262   1.083       .  S
C1256      C1257   1.407       .  A
C1257      C1258   1.395       .  A
C1257      F1264   1.358       .  S
C1258      C1259   1.403       .  A
C1258      H1263   1.084       .  S
C1259      C1260   1.407       .  A
C1260      F1709   1.356       .  S
F1261      C1708   1.356   1_545  S
C1265      C1266   1.401       .  A
C1265      C1270   1.399       .  A
C1265      H1272   1.082       .  S
C1267      C1268   1.398       .  A
C1267      F1274   1.354       .  S
C1268      C1269   1.408       .  A
C1268      H1273   1.083       .  S
C1270      F1271   1.357       .  S
C1275      C1276   1.404       .  A
C1275      H1282   1.083       .  S
C1276      C1277   1.407       .  A
C1277      F1284   1.356       .  S
C1278      C1279   1.403       .  A
C1278      H1283   1.083       .  S
C1279      C1280   1.407   1_655  A
C1280      F1281   1.356       .  S
C1285      C1286   1.407       .  A
C1285      C1290   1.394       .  A
C1285      H1292   1.083       .  S
C1286      C1287   1.414       .  A
C1287      C1288   1.402       .  A
C1287      F1294   1.357       .  S
C1288      C1289   1.400       .  A
C1288      H1293   1.083       .  S
C1289      C1290   1.400       .  A
C1290      F1291   1.357       .  S
C1295      C1296   1.398       .  A
C1295      C1300   1.399       .  A
C1295      H1302   1.083       .  S
C1296      C1297   1.398       .  A
C1297      C1298   1.393       .  A
C1297      F1304   1.358       .  S
C1298      C1299   1.411       .  A
C1298      H1303   1.082       .  S
C1299      C1300   1.416       .  A
C1300      F1301   1.355       .  S
C1305      C1306   1.406       .  A
C1305      C1310   1.396       .  A
C1305      H1312   1.083       .  S
C1306      C1307   1.412       .  A
C1307      C1308   1.399       .  A
C1307      F1314   1.357       .  S
C1308      C1309   1.400       .  A
C1308      H1313   1.082       .  S
C1309      C1310   1.401       .  A
C1310      F1311   1.356       .  S
C1315      C1316   1.400       .  A
C1315      C1320   1.400       .  A
C1315      H1322   1.084       .  S
C1316      C1317   1.402       .  A
C1317      C1318   1.396       .  A
C1317      F1324   1.357       .  S
C1318      C1319   1.406       .  A
C1318      H1323   1.083       .  S
C1319      C1320   1.412       .  A
C1320      F1321   1.357       .  S
C1325      C1326   1.407       .  A
C1325      C1330   1.400       .  A
C1325      H1332   1.083       .  S
C1326      C1327   1.411       .  A
C1327      C1328   1.394       .  A
C1327      F1334   1.358       .  S
C1328      C1329   1.398       .  A
C1328      H1333   1.084       .  S
C1329      C1330   1.402       .  A
C1330      F1331   1.356       .  S
C1335      C1336   1.403       .  A
C1335      C1340   1.398       .  A
C1335      H1342   1.084       .  S
C1336      C1337   1.405       .  A
C1337      C1338   1.397       .  A
C1337      F1344   1.357       .  S
C1338      C1339   1.406       .  A
C1338      H1343   1.083       .  S
C1339      C1340   1.410       .  A
C1340      F1341   1.358       .  S
C1345      C1346   1.401       .  A
C1345      C1350   1.400       .  A
C1345      C1443   1.476       .  S
C1346      C1347   1.403       .  A
C1346      H1351   1.084       .  S
C1347      C1348   1.403       .  A
C1347      C1560   1.478       .  S
C1348      C1349   1.400       .  A
C1348      H1352   1.084       .  S
C1349      C1350   1.398       .  A
C1349      C1553   1.468       .  S
C1350      H1353   1.084       .  S
C1354      C1355   1.400       .  A
C1354      C1359   1.400       .  A
C1354      C1533   1.471       .  S
C1355      C1356   1.401       .  A
C1355      H1360   1.084       .  S
C1356      C1357   1.401       .  A
C1356      C1540   1.472       .  S
C1357      C1358   1.403       .  A
C1357      H1361   1.084       .  S
C1358      C1359   1.402       .  A
C1358      C1447   1.478       .  S
C1359      H1362   1.084       .  S
Fe1363     O1379   2.063       .  S
Fe1363     O1369   2.061       .  S
Fe1363     O1600   2.058   1_554  S
Fe1363     O1592   2.059   1_554  S
Fe1363     O1598   1.979   1_554  S
Fe1364     O1591   2.054       .  S
Fe1364     O1595   2.064       .  S
Fe1364     O1375   2.062       .  S
Fe1364     O1380   2.065       .  S
Fe1364     O1374   1.983       .  S
Fe1365     O1607   2.070       .  S
Fe1365     O1370   2.062       .  S
Fe1365     O1601   2.067       .  S
Fe1365     O1366   2.068       .  S
Fe1365     O1374   1.980       .  S
O1366      C1373   1.270       .  A
O1367     Fe1588   2.054   1_554  S
O1367      C1381   1.268       .  A
O1368     Fe1587   2.059       .  S
O1368      C1373   1.268       .  A
O1369      C1372   1.268       .  A
O1370      C1382   1.267       .  A
O1371     Fe1588   2.064   1_554  S
O1371      C1384   1.267       .  A
C1372      C1543   1.483       .  S
C1372      O1377   1.269       .  A
C1373      C1530   1.482       .  S
O1374     Fe1587   1.979       .  S
O1375      C1378   1.267       .  A
O1376     Fe1587   2.058       .  S
O1376      C1378   1.266       .  A
O1377     Fe1589   2.067       .  S
C1378      C1520   1.462       .  S
O1379      C1384   1.269       .  A
O1380      C1382   1.269       .  A
C1381      C1550   1.480       .  S
C1381      O1383   1.270       .  A
C1382      C1563   1.482       .  S
O1383     Fe1589   2.070       .  S
C1384      C1510   1.486       .  S
C1385      C1386   1.410       .  A
C1385      C1390   1.408       .  A
C1385      C1523   1.495       .  S
C1386      C1387   1.398       .  A
C1386      H1391   1.083       .  S
C1387      C1388   1.397       .  A
C1387      C1513   1.471       .  S
C1389      C1445   1.478   1_455  S
Fe1394     O1410   2.051       .  S
Fe1394     O1400   2.076       .  S
Fe1394     O1631   2.072   1_554  S
Fe1394     O1623   2.053   1_554  S
Fe1394     O1629   1.973   1_554  S
Fe1395     O1622   2.058       .  S
Fe1395     O1626   2.088       .  S
Fe1395     O1406   2.054       .  S
Fe1395     O1411   2.078       .  S
Fe1395     O1405   1.978       .  S
Fe1396     O1638   2.070       .  S
Fe1396     O1401   2.059       .  S
Fe1396     O1632   2.054       .  S
Fe1396     O1397   2.081       .  S
Fe1396     O1405   1.973       .  S
O1397      C1404   1.272       .  A
O1398     Fe1619   2.058   1_554  S
O1398      C1412   1.268       .  A
O1399     Fe1618   2.053       .  S
O1399      C1404   1.267       .  A
O1400      C1403   1.269       .  A
O1401      C1413   1.269       .  A
O1402     Fe1619   2.088   1_554  S
O1402      C1415   1.273       .  A
C1403      C1453   1.473       .  S
C1403      O1408   1.267       .  A
C1404      C1460   1.486       .  S
O1405     Fe1618   1.973       .  S
O1406      C1409   1.267       .  A
O1407     Fe1618   2.072       .  S
O1407      C1409   1.270       .  A
O1408     Fe1620   2.054   1_554  S
C1409      C1473   1.484       .  S
O1410      C1415   1.268       .  A
O1411      C1413   1.273       .  A
C1412      C1500   1.478       .  S
C1412      O1414   1.269       .  A
C1413      C1493   1.488       .  S
O1414     Fe1620   2.070   1_554  S
C1415      C1480   1.478       .  S
C1416      C1417   1.401       .  A
C1416      C1421   1.402       .  A
C1416      C1446   1.481       .  S
C1417      C1418   1.403       .  A
C1417      H1422   1.084       .  S
C1418      C1419   1.405       .  A
C1418      C1503   1.481       .  S
C1419      C1420   1.402       .  A
C1419      H1423   1.084       .  S
C1420      C1421   1.404       .  A
C1420      C1490   1.479       .  S
C1421      H1424   1.084       .  S
C1425      C1426   1.403       .  A
C1425      C1470   1.477       .  S
C1426      C1427   1.404       .  A
C1426      H1431   1.084       .  S
C1427      C1483   1.480       .  S
C1428      C1429   1.404       .  A
C1428      H1432   1.084       .  S
C1429      C1430   1.400       .  A
C1429      C1448   1.477       .  S
C1430      H1433   1.084       .  S
C1434      C1435   1.403       .  A
C1434      C1463   1.480       .  S
C1435      C1436   1.405       .  A
C1435      H1440   1.084       .  S
C1436      C1450   1.483       .  S
C1437      C1438   1.402       .  A
C1437      H1441   1.084       .  S
C1438      C1439   1.403       .  A
C1438      C1444   1.478       .  S
C1439      H1442   1.084       .  S
C1443      C1444   1.408       .  A
C1443      C1448   1.408       .  A
C1444      C1445   1.409       .  A
C1446      C1447   1.411       .  A
C1449      C1450   1.404       .  A
C1449      C1454   1.393       .  A
C1449      H1456   1.083       .  S
C1450      C1451   1.409       .  A
C1451      C1452   1.401       .  A
C1452      C1453   1.403       .  A
C1452      H1457   1.083       .  S
C1453      C1454   1.404       .  A
C1454      F1455   1.356       .  S
C1459      C1460   1.407       .  A
C1460      C1461   1.411       .  A
C1461      C1462   1.397       .  A
C1461      F1468   1.358       .  S
C1462      C1463   1.402       .  A
C1462      H1467   1.084       .  S
C1464      F1465   1.357       .  S
C1469      C1470   1.402       .  A
C1469      C1474   1.398       .  A
C1469      H1476   1.083       .  S
C1470      C1471   1.403       .  A
C1471      C1472   1.397       .  A
C1472      C1473   1.408       .  A
C1472      H1477   1.083       .  S
C1473      C1474   1.410       .  A
C1474      F1475   1.357       .  S
C1479      C1480   1.406       .  A
C1479      C1484   1.404       .  A
C1479      H1486   1.083       .  S
C1480      C1481   1.407       .  A
C1481      C1482   1.395       .  A
C1481      F1488   1.358       .  S
C1482      C1483   1.403       .  A
C1482      H1487   1.084       .  S
C1483      C1484   1.407       .  A
C1489      C1490   1.401       .  A
C1489      C1494   1.399       .  A
C1489      H1496   1.082       .  S
C1491      C1492   1.398       .  A
C1491      F1498   1.354       .  S
C1492      C1493   1.408       .  A
C1492      H1497   1.083       .  S
C1494      F1495   1.357       .  S
C1499      C1500   1.404       .  A
C1499      H1506   1.083       .  S
C1500      C1501   1.407       .  A
C1501      F1508   1.356       .  S
C1502      C1503   1.403       .  A
C1502      H1507   1.083       .  S
C1503      C1504   1.407   1_655  A
C1504      F1505   1.356       .  S
C1509      C1510   1.407       .  A
C1509      C1514   1.394       .  A
C1509      H1516   1.083       .  S
C1510      C1511   1.414       .  A
C1511      C1512   1.402       .  A
C1511      F1518   1.357       .  S
C1512      C1513   1.400       .  A
C1512      H1517   1.083       .  S
C1513      C1514   1.400       .  A
C1514      F1515   1.357       .  S
C1519      C1520   1.398       .  A
C1519      C1524   1.399       .  A
C1519      H1526   1.083       .  S
C1520      C1521   1.398       .  A
C1521      C1522   1.393       .  A
C1521      F1528   1.358       .  S
C1522      C1523   1.411       .  A
C1522      H1527   1.082       .  S
C1523      C1524   1.416       .  A
C1524      F1525   1.355       .  S
C1529      C1530   1.406       .  A
C1529      C1534   1.396       .  A
C1529      H1536   1.083       .  S
C1530      C1531   1.412       .  A
C1531      C1532   1.399       .  A
C1531      F1538   1.357       .  S
C1532      C1533   1.400       .  A
C1532      H1537   1.082       .  S
C1533      C1534   1.401       .  A
C1534      F1535   1.356       .  S
C1539      C1540   1.400       .  A
C1539      C1544   1.400       .  A
C1539      H1546   1.084       .  S
C1540      C1541   1.402       .  A
C1541      C1542   1.396       .  A
C1541      F1548   1.357       .  S
C1542      C1543   1.406       .  A
C1542      H1547   1.083       .  S
C1543      C1544   1.412       .  A
C1544      F1545   1.357       .  S
C1549      C1550   1.407       .  A
C1549      C1554   1.400       .  A
C1549      H1556   1.083       .  S
C1550      C1551   1.411       .  A
C1551      C1552   1.394       .  A
C1551      F1558   1.358       .  S
C1552      C1553   1.398       .  A
C1552      H1557   1.084       .  S
C1553      C1554   1.402       .  A
C1554      F1555   1.356       .  S
C1559      C1560   1.403       .  A
C1559      C1564   1.398       .  A
C1559      H1566   1.084       .  S
C1560      C1561   1.405       .  A
C1561      C1562   1.397       .  A
C1561      F1568   1.357       .  S
C1562      C1563   1.406       .  A
C1562      H1567   1.083       .  S
C1563      C1564   1.410       .  A
C1564      F1565   1.358       .  S
C1569      C1570   1.401       .  A
C1569      C1574   1.400       .  A
C1569      C1667   1.476       .  S
C1570      C1571   1.403       .  A
C1570      H1575   1.084       .  S
C1571      C1572   1.403       .  A
C1571      C1784   1.478       .  S
C1572      C1573   1.400       .  A
C1572      H1576   1.084       .  S
C1573      C1574   1.398       .  A
C1573      C1777   1.468       .  S
C1574      H1577   1.084       .  S
C1578      C1579   1.400       .  A
C1578      C1583   1.400       .  A
C1578      C1757   1.471       .  S
C1579      C1580   1.401       .  A
C1579      H1584   1.084       .  S
C1580      C1581   1.401       .  A
C1580      C1764   1.472       .  S
C1581      C1582   1.403       .  A
C1581      H1585   1.084       .  S
C1582      C1583   1.402       .  A
C1582      C1671   1.478       .  S
C1583      H1586   1.084       .  S
Fe1587     O1603   2.063       .  S
Fe1587     O1593   2.061       .  S
Fe1588     O1599   2.062       .  S
Fe1588     O1604   2.065       .  S
Fe1588     O1598   1.983       .  S
Fe1589     O1594   2.062   1_554  S
Fe1589     O1590   2.068   1_554  S
Fe1589     O1598   1.980   1_554  S
O1590      C1597   1.270       .  A
O1591      C1605   1.268       .  A
O1592      C1597   1.268       .  A
O1593      C1596   1.268       .  A
O1594      C1606   1.267       .  A
O1595      C1608   1.267       .  A
C1596      C1767   1.483       .  S
C1596      O1601   1.269       .  A
C1597      C1754   1.482       .  S
O1599      C1602   1.267       .  A
O1600      C1602   1.266       .  A
C1602      C1744   1.462       .  S
O1603      C1608   1.269       .  A
O1604      C1606   1.269       .  A
C1605      C1774   1.480       .  S
C1605      O1607   1.270       .  A
C1606      C1787   1.482       .  S
C1608      C1734   1.486       .  S
C1609      C1610   1.410       .  A
C1609      C1614   1.408       .  A
C1609      C1747   1.495       .  S
C1610      C1611   1.398       .  A
C1610      H1615   1.083       .  S
C1611      C1612   1.397       .  A
C1611      C1737   1.471       .  S
C1613      C1669   1.478   1_455  S
Fe1618     O1634   2.051       .  S
Fe1618     O1624   2.076       .  S
Fe1619     O1630   2.054       .  S
Fe1619     O1635   2.078       .  S
Fe1619     O1629   1.978       .  S
Fe1620     O1625   2.059       .  S
Fe1620     O1621   2.081       .  S
Fe1620     O1629   1.973       .  S
O1621      C1628   1.272       .  A
O1622      C1636   1.268       .  A
O1623      C1628   1.267       .  A
O1624      C1627   1.269       .  A
O1625      C1637   1.269       .  A
O1626      C1639   1.273       .  A
C1627      C1677   1.473       .  S
C1627      O1632   1.267       .  A
C1628      C1684   1.486       .  S
O1630      C1633   1.267       .  A
O1631      C1633   1.270       .  A
C1633      C1697   1.484       .  S
O1634      C1639   1.268       .  A
O1635      C1637   1.273       .  A
C1636      C1724   1.478       .  S
C1636      O1638   1.269       .  A
C1637      C1717   1.488       .  S
C1639      C1704   1.478       .  S
C1640      C1641   1.401       .  A
C1640      C1645   1.402       .  A
C1640      C1670   1.481       .  S
C1641      C1642   1.403       .  A
C1641      H1646   1.084       .  S
C1642      C1643   1.405       .  A
C1642      C1727   1.481       .  S
C1643      C1644   1.402       .  A
C1643      H1647   1.084       .  S
C1644      C1645   1.404       .  A
C1644      C1714   1.479       .  S
C1645      H1648   1.084       .  S
C1649      C1650   1.403       .  A
C1649      C1694   1.477       .  S
C1650      C1651   1.404       .  A
C1650      H1655   1.084       .  S
C1651      C1707   1.480       .  S
C1652      C1653   1.404       .  A
C1652      H1656   1.084       .  S
C1653      C1654   1.400       .  A
C1653      C1672   1.477       .  S
C1654      H1657   1.084       .  S
C1658      C1659   1.403       .  A
C1658      C1687   1.480       .  S
C1659      C1660   1.405       .  A
C1659      H1664   1.084       .  S
C1660      C1674   1.483       .  S
C1661      C1662   1.402       .  A
C1661      H1665   1.084       .  S
C1662      C1663   1.403       .  A
C1662      C1668   1.478       .  S
C1663      H1666   1.084       .  S
C1667      C1668   1.408       .  A
C1667      C1672   1.408       .  A
C1668      C1669   1.409       .  A
C1670      C1671   1.411       .  A
C1673      C1674   1.404       .  A
C1673      C1678   1.393       .  A
C1673      H1680   1.083       .  S
C1674      C1675   1.409       .  A
C1675      C1676   1.401       .  A
C1676      C1677   1.403       .  A
C1676      H1681   1.083       .  S
C1677      C1678   1.404       .  A
C1678      F1679   1.356       .  S
C1683      C1684   1.407       .  A
C1684      C1685   1.411       .  A
C1685      C1686   1.397       .  A
C1685      F1692   1.358       .  S
C1686      C1687   1.402       .  A
C1686      H1691   1.084       .  S
C1688      F1689   1.357       .  S
C1693      C1694   1.402       .  A
C1693      C1698   1.398       .  A
C1693      H1700   1.083       .  S
C1694      C1695   1.403       .  A
C1695      C1696   1.397       .  A
C1696      C1697   1.408       .  A
C1696      H1701   1.083       .  S
C1697      C1698   1.410       .  A
C1698      F1699   1.357       .  S
C1703      C1704   1.406       .  A
C1703      C1708   1.404       .  A
C1703      H1710   1.083       .  S
C1704      C1705   1.407       .  A
C1705      C1706   1.395       .  A
C1705      F1712   1.358       .  S
C1706      C1707   1.403       .  A
C1706      H1711   1.084       .  S
C1707      C1708   1.407       .  A
C1713      C1714   1.401       .  A
C1713      C1718   1.399       .  A
C1713      H1720   1.082       .  S
C1715      C1716   1.398       .  A
C1715      F1722   1.354       .  S
C1716      C1717   1.408       .  A
C1716      H1721   1.083       .  S
C1718      F1719   1.357       .  S
C1723      C1724   1.404       .  A
C1723      H1730   1.083       .  S
C1724      C1725   1.407       .  A
C1725      F1732   1.356       .  S
C1726      C1727   1.403       .  A
C1726      H1731   1.083       .  S
C1727      C1728   1.407   1_655  A
C1728      F1729   1.356       .  S
C1733      C1734   1.407       .  A
C1733      C1738   1.394       .  A
C1733      H1740   1.083       .  S
C1734      C1735   1.414       .  A
C1735      C1736   1.402       .  A
C1735      F1742   1.357       .  S
C1736      C1737   1.400       .  A
C1736      H1741   1.083       .  S
C1737      C1738   1.400       .  A
C1738      F1739   1.357       .  S
C1743      C1744   1.398       .  A
C1743      C1748   1.399       .  A
C1743      H1750   1.083       .  S
C1744      C1745   1.398       .  A
C1745      C1746   1.393       .  A
C1745      F1752   1.358       .  S
C1746      C1747   1.411       .  A
C1746      H1751   1.082       .  S
C1747      C1748   1.416       .  A
C1748      F1749   1.355       .  S
C1753      C1754   1.406       .  A
C1753      C1758   1.396       .  A
C1753      H1760   1.083       .  S
C1754      C1755   1.412       .  A
C1755      C1756   1.399       .  A
C1755      F1762   1.357       .  S
C1756      C1757   1.400       .  A
C1756      H1761   1.082       .  S
C1757      C1758   1.401       .  A
C1758      F1759   1.356       .  S
C1763      C1764   1.400       .  A
C1763      C1768   1.400       .  A
C1763      H1770   1.084       .  S
C1764      C1765   1.402       .  A
C1765      C1766   1.396       .  A
C1765      F1772   1.357       .  S
C1766      C1767   1.406       .  A
C1766      H1771   1.083       .  S
C1767      C1768   1.412       .  A
C1768      F1769   1.357       .  S
C1773      C1774   1.407       .  A
C1773      C1778   1.400       .  A
C1773      H1780   1.083       .  S
C1774      C1775   1.411       .  A
C1775      C1776   1.394       .  A
C1775      F1782   1.358       .  S
C1776      C1777   1.398       .  A
C1776      H1781   1.084       .  S
C1777      C1778   1.402       .  A
C1778      F1779   1.356       .  S
C1783      C1784   1.403       .  A
C1783      C1788   1.398       .  A
C1783      H1790   1.084       .  S
C1784      C1785   1.405       .  A
C1785      C1786   1.397       .  A
C1785      F1792   1.357       .  S
C1786      C1787   1.406       .  A
C1786      H1791   1.083       .  S
C1787      C1788   1.410       .  A
C1788      F1789   1.358       .  S
