geometry optimzed in LAMMPS
_audit_creation_date              2020-11-30 
_audit_creation_method            'lammps2cif' 
_symmetry_space_group_name_H-M    'P1' 
_symmetry_Int_Tables_number       1 
_symmetry_cell_setting            triclinic 
loop_ 
_symmetry_equiv_pos_as_xyz 
  x,y,z 
_cell_length_a                    54.968078932038686 
_cell_length_b                    55.72239440526547 
_cell_length_c                    26.4814568993474 
_cell_angle_alpha                 91.35220956438741 
_cell_angle_beta                  90.1763920417202 
_cell_angle_gamma                 121.21910472507696 
loop_ 
_atom_site_label 
_atom_site_type_symbol 
_atom_site_fract_x 
_atom_site_fract_y 
_atom_site_fract_z 
_atom_site_charge 
O1          O  0.34049433  0.13279654  0.57482623    -0.86160
O2          O  0.28976895  0.11711153  0.84705398    -0.86320
O3          O  0.33183221  0.08695542  0.73599883    -0.87990
O4          O  0.26507492  0.08918537  0.66795062    -0.86750
O5          O  0.25123551  0.12149660  0.66078484    -0.86340
O6          O  0.37541009  0.11961172  0.76930591    -0.87710
O7          O  0.27866112  0.08680465  0.77857150    -0.86190
O8          O  0.32099279  0.09634865  0.62873496    -0.85770
Zr9        Zr  0.31039322  0.11251163  0.70944218     2.84310
O10         O  0.29376791  0.13835464  0.75261194    -1.07750
O11         O  0.35579807  0.14293647  0.68048128    -1.08480
C12         C  0.33166642  0.10734603  0.58553047     1.06950
C13         C  0.27507842  0.09291827  0.82431710     1.06900
C14         C  0.35424334  0.09397972  0.76252104     1.09880
C15         C  0.24816065  0.09687580  0.65220483     1.07660
H16         H  0.33793148  0.12418057  0.80521642     0.33220
O17         O  0.33880794  0.13691694  0.78028198    -1.28700
H18         H  0.29788805  0.13345299  0.62490699     0.32890
O19         O  0.30887454  0.14344098  0.65448503    -1.30380
O20         O  0.34210399  0.20784505  0.86953890    -0.86150
O21         O  0.38555489  0.21952241  0.59173365    -0.87650
O22         O  0.39370382  0.16127896  0.83510998    -0.86230
O23         O  0.26074329  0.16674919  0.76486636    -0.86280
O24         O  0.28198048  0.16984435  0.60841280    -0.85990
O25         O  0.41693844  0.17184759  0.68840303    -0.85790
O26         O  0.41506888  0.24765172  0.76088487    -0.86160
O27         O  0.34378674  0.24866733  0.70249539    -0.85630
O28         O  0.41799550  0.21217629  0.79553766    -0.86690
O29         O  0.29980334  0.21503072  0.67109671    -0.85850
O30         O  0.35856075  0.15995905  0.88305618    -0.86250
O31         O  0.39760912  0.17377042  0.61250942    -0.85970
O32         O  0.31957622  0.17516344  0.56232082    -0.85620
O33         O  0.28021389  0.16428153  0.84009571    -0.86030
O34         O  0.36588226  0.24386549  0.81456628    -0.86320
O35         O  0.39638813  0.25114048  0.65756453    -0.87660
Zr36       Zr  0.32413580  0.16408185  0.82220599     2.83100
Zr37       Zr  0.35365694  0.17402748  0.62438813     2.83500
Zr38       Zr  0.38426259  0.16724410  0.75113063     2.84090
Zr39       Zr  0.29069364  0.16814239  0.69571809     2.83360
Zr40       Zr  0.36709884  0.22480375  0.73104662     2.84220
O41         O  0.33607559  0.19920529  0.66467198    -1.08230
O42         O  0.36834882  0.19437029  0.78927261    -1.07730
C43         C  0.35586093  0.23401492  0.85847591     1.06920
C44         C  0.39935991  0.24442281  0.61153364     1.09540
C45         C  0.38228550  0.15970612  0.87773629     1.07100
C46         C  0.26105352  0.16565338  0.81369133     1.07460
C47         C  0.29485210  0.17294713  0.56653155     1.07040
C48         C  0.41669993  0.17312047  0.64019702     1.06590
C49         C  0.42462948  0.23811703  0.79392373     1.07020
C50         C  0.32108054  0.24077260  0.67592574     1.06530
H51         H  0.40351827  0.21088625  0.68217773     0.33210
O52         O  0.38430159  0.19856922  0.69302819    -1.29330
H53         H  0.31500935  0.20564192  0.77953030     0.33230
O54         O  0.32172357  0.19445852  0.76346282    -1.30720
C55         C  0.47596135  0.48154971  0.48169356     0.02620
C56         C  0.49942603  0.47737161  0.47320408     0.02620
C57         C  0.02774191  0.00041369  0.46756215     0.02620
C58         C  0.03326362  0.02793479  0.46510736     0.02620
C59         C  0.01002612  0.03208904  0.46883388     0.02620
C60         C  0.48129255  0.00915951  0.47148892     0.02620
C61         C  0.00354048  0.16583827  0.53937544     0.03460
C62         C  0.00342738  0.14097697  0.53121741    -0.12690
C63         C  0.02158042  0.13984898  0.49552759     0.00960
C64         C  0.03947018  0.16368334  0.46791565    -0.11210
C65         C  0.03873778  0.18820883  0.47596644     0.03450
C66         C  0.02209316  0.18972835  0.51354761    -0.10630
H67         H  0.98826042  0.12225746  0.55071088     0.09050
H68         H  0.05325880  0.16296088  0.43952804     0.06580
H69         H  0.02197819  0.20897477  0.51998840     0.06430
C70         C  0.14782801  0.45591275  0.48612593     0.03460
C71         C  0.12255141  0.45648201  0.47631838    -0.12690
C72         C  0.12036397  0.97966535  0.49245735     0.00960
C73         C  0.14306158  0.00155267  0.51967460    -0.11210
C74         C  0.16613684  0.99988621  0.53581917     0.03450
C75         C  0.16921707  0.97758485  0.51764114    -0.10630
H76         H  0.10494369  0.43923853  0.45549528     0.09050
H77         H  0.14251848  0.02022684  0.53002104     0.06580
H78         H  0.18844023  0.97762151  0.52684377     0.06430
C79         C  0.35640714  0.04503738  0.43836508     0.03460
C80         C  0.38245022  0.04655804  0.44483113    -0.12690
C81         C  0.38851637  0.02822011  0.41790999     0.00960
C82         C  0.36915797  0.01153257  0.37828672    -0.11210
C83         C  0.34429098  0.01232282  0.36771858     0.03450
C84         C  0.33783794  0.02865437  0.39916104    -0.10630
H85         H  0.39725938  0.06160610  0.47225603     0.09050
H86         H  0.37237881  0.49679384  0.35657351     0.06580
H87         H  0.31761029  0.02747022  0.39503332     0.06430
C88         C  0.01438133  0.34719108  0.40693225     0.03460
C89         C  0.49646467  0.32361039  0.43639283    -0.12690
C90         C  0.47591539  0.32408665  0.46788169     0.00960
C91         C  0.47426237  0.34824716  0.47092253    -0.11210
C92         C  0.49210058  0.37143210  0.44246294     0.03450
C93         C  0.01156495  0.37072926  0.40976963    -0.10630
H94         H  0.49853523  0.30531181  0.43489772     0.09050
H95         H  0.45957355  0.34931073  0.49678274     0.06580
H96         H  0.02575287  0.38922476  0.38875558     0.06430
C97         C  0.20066799  0.14959913  0.43837751     0.03460
C98         C  0.20104557  0.16889191  0.40499803    -0.12690
C99         C  0.17561939  0.16610109  0.38731823     0.00960
C100        C  0.14955084  0.14227211  0.39972542    -0.11210
C101        C  0.14867487  0.12165995  0.43038287     0.03450
C102        C  0.17441592  0.12552211  0.45021656    -0.10630
H103        H  0.22119500  0.18755953  0.39662626     0.09050
H104        H  0.12976134  0.14019424  0.38703582     0.06580
H105        H  0.17390458  0.11063137  0.47640943     0.06430
C106        C  0.33754541  0.32818597  0.53868508     0.03460
C107        C  0.36349842  0.35442972  0.54171121    -0.12690
C108        C  0.37050839  0.37486529  0.50481413     0.00960
C109        C  0.35046307  0.36916467  0.46645997    -0.11210
C110        C  0.32389537  0.34441398  0.46530132     0.03450
C111        C  0.31757771  0.32363412  0.50059327    -0.10630
H112        H  0.37810675  0.35875663  0.57289119     0.09050
H113        H  0.35503352  0.38456112  0.43799364     0.06580
H114        H  0.29716854  0.30416207  0.49850414     0.06430
O115        O  0.13325031  0.29461018  0.35887753    -0.86160
O116        O  0.11351706  0.32770517  0.09213265    -0.86320
O117        O  0.09209441  0.32785227  0.26467473    -0.87990
O118        O  0.08431656  0.25532182  0.19764836    -0.86750
O119        O  0.11461880  0.24124806  0.17134746    -0.86340
O120        O  0.12828345  0.37391716  0.27376718    -0.87710
O121        O  0.08401303  0.30578660  0.15849491    -0.86190
O122        O  0.09508000  0.27974258  0.30563761    -0.85770
Zr123      Zr  0.11270157  0.30378983  0.22554662     2.84310
O124        O  0.13442225  0.29743904  0.15514553    -1.07750
O125        O  0.14579376  0.33819002  0.28175230    -1.08480
C126        C  0.10676027  0.27945841  0.34800029     1.06950
C127        C  0.08931386  0.31668608  0.11458470     1.06900
C128        C  0.10232698  0.35329277  0.28018264     1.09880
C129        C  0.08921284  0.23687629  0.17823351     1.07660
H130        H  0.12805098  0.35436354  0.17631465     0.33220
O131        O  0.13989890  0.34712120  0.18609068    -1.28700
H132        H  0.13074891  0.26997435  0.26877250     0.32890
O133        O  0.14190585  0.28800379  0.25348451    -1.30380
O134        O  0.20490631  0.36878973  0.06870867    -0.86150
O135        O  0.22110846  0.33686961  0.34341596    -0.87650
O136        O  0.17263705  0.40968486  0.17639749    -0.86230
O137        O  0.15535469  0.26882303  0.09458156    -0.86280
O138        O  0.16909825  0.25578008  0.24960759    -0.85990
O139        O  0.18394601  0.39636480  0.32832916    -0.85790
O140        O  0.25387781  0.40577041  0.23192113    -0.86160
O141        O  0.24487050  0.33131883  0.16680965    -0.85630
O142        O  0.22383937  0.42098653  0.25589913    -0.86690
O143        O  0.20885873  0.28530113  0.15480832    -0.85850
O144        O  0.16638449  0.38552398  0.10125281    -0.86250
O145        O  0.16981112  0.35649358  0.37180202    -0.85970
O146        O  0.17484785  0.27910471  0.32556583    -0.85620
O147        O  0.15337566  0.30324133  0.05184816    -0.86030
O148        O  0.24264051  0.38073987  0.12234236    -0.86320
O149        O  0.25046881  0.35156480  0.27512032    -0.87660
Zr150      Zr  0.16184769  0.34033442  0.11585298     2.83100
Zr151      Zr  0.17458650  0.32257206  0.31173404     2.83500
Zr152      Zr  0.17424235  0.38087741  0.24199207     2.84090
Zr153      Zr  0.16417495  0.28194957  0.18306209     2.83360
Zr154      Zr  0.22522130  0.35739217  0.20301628     2.84220
O155        O  0.19671748  0.31511919  0.24226247    -1.08230
O156        O  0.19631476  0.37352267  0.17321890    -1.07730
C157        C  0.23175381  0.38201416  0.07969913     1.06920
C158        C  0.24487300  0.34442258  0.32192169     1.09540
C159        C  0.17003533  0.40696509  0.12783557     1.07100
C160        C  0.15170577  0.27914432  0.05431123     1.07460
C161        C  0.17281105  0.25856941  0.29802370     1.07040
C162        C  0.17434427  0.38193476  0.36810106     1.06590
C163        C  0.24885477  0.42399633  0.25217137     1.07020
C164        C  0.23506976  0.30581485  0.15150715     1.06530
H165        H  0.21652993  0.37725431  0.29721051     0.33210
O166        O  0.20302127  0.36458943  0.27202819    -1.29330
H167        H  0.20095894  0.32296969  0.11490992     0.33230
O168        O  0.19162152  0.32495091  0.14405617    -1.30720
C169        C  0.44747857  0.13306225  0.01722587     0.03460
C170        C  0.46936155  0.15221620  0.05104339    -0.12690
C171        C  0.48856196  0.14563606  0.07380836     0.00960
C172        C  0.48564927  0.11963676  0.06091392    -0.11210
C173        C  0.46567779  0.10124906  0.02445902     0.03450
C174        C  0.44642582  0.10792505  0.00310175    -0.10630
H175        H  0.47201033  0.17267300  0.05789300     0.09050
H176        H  0.99990203  0.11394795  0.07763279     0.06580
H177        H  0.43133612  0.09409155  0.97418098     0.06430
C178        C  0.49067263  0.01616178  0.95653818     0.02620
C179        C  0.46739742  0.48829179  0.95262010     0.02620
C180        C  0.47084028  0.46527984  0.95987232     0.02620
C181        C  0.99856734  0.46964551  0.95912227     0.02620
C182        C  0.02261139  0.49741848  0.95597556     0.02620
C183        C  0.01874145  0.02094972  0.95727446     0.02620
C184        C  0.15842335  0.48676046  0.01123819     0.03460
C185        C  0.18179298  0.50518793  0.98246698    -0.12690
C186        C  0.18056895  0.02413851  0.95061335     0.00960
C187        C  0.15539067  0.02469877  0.94744311    -0.11210
C188        C  0.13181986  0.50651342  0.97614096     0.03450
C189        C  0.13321925  0.48729098  0.00752472    -0.10630
H190        H  0.20112448  0.50453605  0.98435624     0.09050
H191        H  0.15409012  0.03926271  0.92278879     0.06580
H192        H  0.11459167  0.47252011  0.02810990     0.06430
C193        C  0.00158586  0.33130004  0.03101864     0.03460
C194        C  0.48233793  0.30949437  0.99893068    -0.12690
C195        C  0.46452505  0.31302438  0.96668291     0.00960
C196        C  0.46506518  0.33850943  0.96834125    -0.11210
C197        C  0.48579757  0.36168544  0.99789197     0.03450
C198        C  0.00385670  0.35761003  0.02955883    -0.10630
H199        H  0.48323617  0.29053205  0.99548720     0.08690
H200        H  0.45093058  0.34084331  0.94309970     0.06580
H201        H  0.02091774  0.37518139  0.05067216     0.06430
C202        C  0.13921404  0.18621463  0.94082561     0.03460
C203        C  0.16487517  0.18746366  0.92757383    -0.12690
C204        C  0.16500142  0.16329621  0.91145126     0.00960
C205        C  0.14022832  0.13696755  0.91507842    -0.11210
C206        C  0.11485532  0.13451711  0.93134501     0.03450
C207        C  0.11420478  0.15904157  0.94215746    -0.10630
H208        H  0.18498704  0.20706788  0.92875215     0.09050
H209        H  0.14070784  0.11828095  0.90469587     0.06580
H210        H  0.09377206  0.15621671  0.95100303     0.06430
C211        C  0.33822614  0.50028276  0.88355696     0.03460
C212        C  0.31488186  0.48472102  0.91594591    -0.12690
C213        C  0.31153570  0.46093068  0.94017760     0.00960
C214        C  0.33224514  0.45380335  0.93509926    -0.11210
C215        C  0.35730982  0.47129266  0.91007578     0.03450
C216        C  0.35901724  0.49281243  0.88111890    -0.10630
H217        H  0.29972862  0.49111767  0.92356185     0.09050
H218        H  0.32952230  0.43553425  0.95375389     0.06580
H219        H  0.37742366  0.00443405  0.85807848     0.06430
C220        C  0.36683003  0.31056111  0.01898752     0.03460
C221        C  0.34240938  0.30255647  0.04726981    -0.12690
C222        C  0.33865506  0.32299225  0.07161864     0.00960
C223        C  0.35969919  0.35162487  0.06748897    -0.11210
C224        C  0.38475439  0.35953112  0.04092630     0.03450
C225        C  0.38841059  0.33879267  0.01804031    -0.10630
H226        H  0.32512428  0.28082114  0.04604537     0.09050
H227        H  0.35588790  0.36764356  0.08241169     0.06580
H228        H  0.40668406  0.34491767  0.99432348     0.06430
C229        C  0.41959040  0.47533285  0.97906177    -0.11930
C230        C  0.43901808  0.48302543  0.94013058     0.05070
C231        C  0.43077596  0.48403623  0.88983093    -0.07220
C232        C  0.40277085  0.47709518  0.88051198    -0.07970
C233        C  0.38344733  0.47053231  0.91988716    -0.02520
C234        C  0.39192655  0.46875208  0.96958373     0.04300
N235        N  0.37343712  0.46160316  0.01163580     0.66810
H236        H  0.42603756  0.47440287  0.01736347     0.15710
H237        H  0.39632833  0.97754645  0.84189007     0.15420
N238        N  0.45061059  0.99174692  0.84800812     0.74510
O239        O  0.37795078  0.48061614  0.04374173    -0.38940
O240        O  0.35948136  0.43632144  0.02455767    -0.38880
O241        O  0.47209315  0.98925905  0.85098678    -0.39590
O242        O  0.44621409  0.00013703  0.80700352    -0.39650
C243        C  0.05727975  0.05801536  0.90679714    -0.11930
C244        C  0.04382295  0.05028871  0.95355886     0.05070
C245        C  0.05331446  0.07095825  0.99320905    -0.07220
C246        C  0.07569333  0.09859946  0.98409565    -0.07970
C247        C  0.08908305  0.10604586  0.93704959    -0.02520
C248        C  0.07934287  0.08542911  0.89771391     0.04300
N249        N  0.09069821  0.09217561  0.84772987     0.66810
H250        H  0.04935736  0.04292106  0.87576644     0.15710
H251        H  0.08352606  0.11426996  0.01456782     0.15420
N252        N  0.04120060  0.06444201  0.04281438     0.74510
O253        O  0.09227136  0.07410998  0.82056789    -0.38940
O254        O  0.09577104  0.11475369  0.82830132    -0.38880
O255        O  0.03045488  0.04001790  0.05946753    -0.39590
O256        O  0.04286883  0.08362963  0.07167504    -0.39650
C257        C  0.08994961  0.49653044  0.92514286    -0.11930
C258        C  0.10508681  0.50644802  0.97093087     0.05070
C259        C  0.09393132  0.01480985  0.01089268    -0.07220
C260        C  0.06712704  0.01185904  0.00435273    -0.07970
C261        C  0.05179705  0.50185638  0.95855687    -0.02520
C262        C  0.06363901  0.49439896  0.91809831     0.04300
N263        N  0.04963969  0.48478612  0.86967966     0.66810
H264        H  0.09880923  0.49039837  0.89447043     0.15710
H265        H  0.05804761  0.01730846  0.03542033     0.15420
N266        N  0.10958916  0.02672435  0.05767293     0.74510
O267        O  0.03957497  0.49783124  0.84831371    -0.38940
O268        O  0.05140390  0.46619299  0.84462096    -0.38880
O269        O  0.13643553  0.04125652  0.05817185    -0.39590
O270        O  0.09663537  0.02554218  0.09770273    -0.39650
C271        C  0.00766837  0.43928625  0.01343452    -0.11930
C272        C  0.00150451  0.44458434  0.96486994     0.05070
C273        C  0.49182548  0.42302984  0.92679739    -0.07220
C274        C  0.48842464  0.39713864  0.93905020    -0.07970
C275        C  0.49152301  0.39066405  0.98872140    -0.02520
C276        C  0.00140731  0.41233056  0.02658978     0.04300
N277        N  0.00308518  0.40702142  0.07896368     0.66810
H278        H  0.01428954  0.45542958  0.04286211     0.15710
H279        H  0.48282010  0.38157213  0.90899737     0.15420
N280        N  0.48440439  0.42628559  0.87608719     0.74510
O281        O  0.02231224  0.42586343  0.10741721    -0.38940
O282        O  0.98329897  0.38510805  0.09837038    -0.38880
O283        O  0.49119550  0.45001657  0.86004423    -0.39590
O284        O  0.47067810  0.40513115  0.84668288    -0.39650
C285        C  0.44834071  0.43359927  0.03173798    -0.11930
C286        C  0.44660180  0.43846240  0.98021176     0.05070
C287        C  0.42171615  0.41889958  0.95216147    -0.07220
C288        C  0.40087889  0.39460787  0.97554091    -0.07970
C289        C  0.40402544  0.38873871  0.02545423    -0.02520
C290        C  0.42781977  0.40875313  0.05472504     0.04300
N291        N  0.43204288  0.40413695  0.10666849     0.66810
H292        H  0.46635249  0.44936944  0.05408474     0.15710
H293        H  0.38254818  0.37905386  0.95343299     0.15420
N294        N  0.41678973  0.42275634  0.90045654     0.74510
O295        O  0.45585405  0.41962263  0.12856735    -0.38940
O296        O  0.41177593  0.38582729  0.13204850    -0.38880
O297        O  0.43686782  0.43321355  0.86972945    -0.39590
O298        O  0.39169453  0.41283536  0.88388375    -0.39650
C299        C  0.47420796  0.07564672  0.95464223    -0.11930
C300        C  0.46779620  0.07688135  0.00563117     0.05070
C301        C  0.46815588  0.05765237  0.03912106    -0.07220
C302        C  0.97642635  0.03900341  0.02118531    -0.07970
C303        C  0.48446790  0.03873738  0.97100983    -0.02520
C304        C  0.48229196  0.05673459  0.93650167     0.04300
N305        N  0.48757740  0.05610539  0.88336515     0.66810
H306        H  0.47404457  0.09045695  0.92906956     0.15710
H307        H  0.97611358  0.02397761  0.04682444     0.15420
N308        N  0.95999476  0.05655126  0.09096955     0.74510
O309        O  0.47719139  0.06523407  0.85194787    -0.38940
O310        O  0.50362634  0.04780092  0.86745264    -0.38880
O311        O  0.44115051  0.06205732  0.10324784    -0.39590
O312        O  0.96967816  0.04763467  0.12416757    -0.39650
C313        C  0.11631577  0.21048880  0.98549575    -0.11930
C314        C  0.13889695  0.21264162  0.95650070     0.05070
C315        C  0.16147762  0.24042210  0.94614958    -0.07220
C316        C  0.16458390  0.26339353  0.97553395    -0.07970
C317        C  0.14358815  0.26007660  0.00932965    -0.02520
C318        C  0.11764269  0.23403709  0.00918548     0.04300
N319        N  0.09260859  0.23095919  0.03315241     0.66810
H320        H  0.09760361  0.19041883  0.99202730     0.15710
H321        H  0.18361479  0.28389568  0.97248752     0.15420
N322        N  0.18036237  0.24595373  0.90473540     0.74510
O323        O  0.06854070  0.20952647  0.02297177    -0.38940
O324        O  0.09346295  0.25123335  0.05716397    -0.38880
O325        O  0.17076962  0.23252578  0.86322170    -0.39590
O326        O  0.20554634  0.26671990  0.90701479    -0.39650
C327        C  0.29346921  0.32156027  0.06275242    -0.11930
C328        C  0.31033658  0.31478823  0.09158951     0.05070
C329        C  0.29925043  0.29944914  0.13627412    -0.07220
C330        C  0.27215749  0.29317563  0.15244203    -0.07970
C331        C  0.25616128  0.30164595  0.12498372    -0.02520
C332        C  0.26648120  0.31497965  0.07852320     0.04300
N333        N  0.25027279  0.32304888  0.04813570     0.66810
H334        H  0.30156598  0.33224940  0.02755464     0.15710
H335        H  0.26445229  0.28359639  0.18859022     0.15420
N336        N  0.31543299  0.29134462  0.16685079     0.74510
O337        O  0.26270757  0.34361499  0.01933160    -0.38940
O338        O  0.22349382  0.30790504  0.04592435    -0.38880
O339        O  0.34228717  0.30519645  0.16693459    -0.39590
O340        O  0.30288947  0.27138405  0.19687504    -0.39650
C341        C  0.05167525  0.34757789  0.04801737    -0.11930
C342        C  0.02319749  0.32776817  0.05687363     0.05070
C343        C  0.01611256  0.30335078  0.08389975    -0.07220
C344        C  0.03799778  0.29909938  0.09943618    -0.07970
C345        C  0.06658647  0.31927547  0.09082545    -0.02520
C346        C  0.07325728  0.34404986  0.06620145     0.04300
N347        N  0.10141138  0.36786977  0.06774294     0.66810
H348        H  0.05738790  0.36643659  0.02780816     0.15710
H349        H  0.03281692  0.28057337  0.12027712     0.15420
N350        N  0.98718958  0.28328573  0.09694670     0.74510
O351        O  0.11304328  0.37987871  0.02738782    -0.38940
O352        O  0.11062546  0.38110606  0.10936845    -0.38880
O353        O  0.97953080  0.25795731  0.10344892    -0.39590
O354        O  0.97004035  0.29129744  0.10724783    -0.39650
C355        C  0.03978465  0.16802210  0.10438907    -0.11930
C356        C  0.01328805  0.16648275  0.10734218     0.05070
C357        C  0.01135816  0.18531194  0.14154329    -0.07220
C358        C  0.03619180  0.20703925  0.16571354    -0.07970
C359        C  0.06313031  0.20986212  0.15984797    -0.02520
C360        C  0.06418405  0.18848358  0.13182036     0.04300
N361        N  0.08945544  0.18688496  0.13105599     0.66810
H362        H  0.04194125  0.15349823  0.07976717     0.15710
H363        H  0.03422692  0.22196857  0.18958769     0.15420
N364        N  0.48441876  0.18228507  0.15362203     0.74510
O365        O  0.10198894  0.18841628  0.17211641    -0.38940
O366        O  0.09575782  0.17825212  0.09161883    -0.38880
O367        O  0.46299568  0.15823882  0.16068111    -0.39590
O368        O  0.98280417  0.20365733  0.16374645    -0.39650
C369        C  0.26393380  0.42023988  0.95716509    -0.11930
C370        C  0.28853674  0.44440832  0.97591975     0.05070
C371        C  0.29429236  0.44794942  0.02859205    -0.07220
C372        C  0.27586878  0.42653157  0.06062227    -0.07970
C373        C  0.25158132  0.40188694  0.04204569    -0.02520
C374        C  0.24535075  0.39887598  0.98937368     0.04300
N375        N  0.22119007  0.37399634  0.96750417     0.66810
H376        H  0.26018513  0.41714243  0.91667462     0.15710
H377        H  0.28012932  0.42951550  0.10096112     0.15420
N378        N  0.31887665  0.47277644  0.05015118     0.74510
O379        O  0.20831355  0.37576347  0.92952972    -0.38940
O380        O  0.21513771  0.35001621  0.98133307    -0.38880
O381        O  0.33065629  0.49560370  0.02715242    -0.39590
O382        O  0.32737014  0.47269520  0.09448614    -0.39650
C383        C  0.15578462  0.44250293  0.12118777    -0.11930
C384        C  0.16955773  0.42940371  0.10011475     0.05070
C385        C  0.17988126  0.43565459  0.05059673    -0.07220
C386        C  0.17420629  0.45289602  0.02190152    -0.07970
C387        C  0.16079120  0.46640245  0.04280157    -0.02520
C388        C  0.15174272  0.46137066  0.09348855     0.04300
N389        N  0.13927212  0.47564573  0.11788636     0.66810
H390        H  0.14798501  0.43790906  0.15939855     0.15710
H391        H  0.18141019  0.45666554  0.98327805     0.15420
N392        N  0.19805728  0.42650289  0.03057852     0.74510
O393        O  0.11908592  0.46274371  0.14810831    -0.38940
O394        O  0.15076379  0.50188893  0.11467539    -0.38880
O395        O  0.21819947  0.42906269  0.05775222    -0.39590
O396        O  0.19757164  0.42109711  0.98388935    -0.39650
C397        C  0.26938766  0.35682100  0.40481474    -0.11930
C398        C  0.26704213  0.34562752  0.35568392     0.05070
C399        C  0.28263563  0.33258028  0.34361466    -0.07220
C400        C  0.29988163  0.33095609  0.38111519    -0.07970
C401        C  0.30214740  0.34236016  0.42992117    -0.02520
C402        C  0.28700348  0.35582809  0.44180935     0.04300
N403        N  0.28958057  0.36905364  0.49063548     0.66810
H404        H  0.25689116  0.36608866  0.41493890     0.15710
H405        H  0.31217665  0.32134134  0.37180852     0.15420
N406        N  0.28031027  0.31977508  0.29479317     0.74510
O407        O  0.28642552  0.38990963  0.49464744    -0.38940
O408        O  0.29271927  0.35875988  0.53031816    -0.38880
O409        O  0.28629264  0.33421645  0.25575371    -0.39590
O410        O  0.27773706  0.29592151  0.29149983    -0.39650
C411        C  0.15785287  0.20841053  0.30042380    -0.11930
C412        C  0.17390442  0.23553910  0.32278906     0.05070
C413        C  0.19204889  0.23990942  0.36449036    -0.07220
C414        C  0.19259723  0.21697212  0.38372541    -0.07970
C415        C  0.17619900  0.18983368  0.36177210    -0.02520
C416        C  0.15936502  0.18573155  0.31833179     0.04300
N417        N  0.14483418  0.15924278  0.29067661     0.66810
H418        H  0.14457711  0.20498206  0.26747129     0.15710
H419        H  0.20579372  0.22043773  0.41678045     0.15420
N420        N  0.21138515  0.26737321  0.38590802     0.74510
O421        O  0.12268333  0.15232491  0.26485622    -0.38940
O422        O  0.15604454  0.14444321  0.28654342    -0.38880
O423        O  0.20192078  0.28100015  0.40835897    -0.39590
O424        O  0.23713193  0.27489695  0.39294738    -0.39650
C425        C  0.08362462  0.35372126  0.36378792    -0.11930
C426        C  0.08264565  0.35743902  0.31170830     0.05070
C427        C  0.05861500  0.35676372  0.29067579    -0.07220
C428        C  0.03647749  0.35279354  0.32278258    -0.07970
C429        C  0.03747012  0.34901916  0.37498068    -0.02520
C430        C  0.06169282  0.35001325  0.39593120     0.04300
N431        N  0.06460012  0.34751646  0.44932990     0.66810
H432        H  0.10138417  0.35283396  0.37935440     0.15710
H433        H  0.01817491  0.35263376  0.30702786     0.15420
N434        N  0.05603126  0.35935632  0.23711499     0.74510
O435        O  0.07869091  0.33699762  0.46494274    -0.38940
O436        O  0.05612987  0.35871946  0.48109171    -0.38880
O437        O  0.03189889  0.35040476  0.21679752    -0.39590
O438        O  0.07786343  0.37198801  0.21027255    -0.39650
C439        C  0.31471632  0.46390746  0.33502038    -0.11930
C440        C  0.32212535  0.49178321  0.33125939     0.05070
C441        C  0.30537013  0.49813155  0.29930314    -0.07220
C442        C  0.28110519  0.47595268  0.27369097    -0.07970
C443        C  0.27374067  0.44798321  0.27879721    -0.02520
C444        C  0.29089505  0.44231192  0.31012234     0.04300
N445        N  0.28219725  0.41432762  0.32290953     0.66810
H446        H  0.32609409  0.45835870  0.36119754     0.15710
H447        H  0.26828094  0.48051079  0.24918657     0.15420
N448        N  0.31282214  0.02664971  0.29180336     0.74510
O449        O  0.29970182  0.40616211  0.31943988    -0.38940
O450        O  0.26082590  0.40135933  0.35055948    -0.38880
O451        O  0.33856533  0.04629602  0.29269463    -0.39590
O452        O  0.29392653  0.03198543  0.27957665    -0.39650
C453        C  0.16696840  0.42227623  0.48388353    -0.11930
C454        C  0.15278385  0.43430599  0.45991277     0.05070
C455        C  0.14473393  0.42671466  0.40885055    -0.07220
C456        C  0.14963351  0.40730805  0.38427787    -0.07970
C457        C  0.16454290  0.39577010  0.40624242    -0.02520
C458        C  0.17359496  0.40358653  0.45761211     0.04300
N459        N  0.19061153  0.39450358  0.48287646     0.66810
H460        H  0.17355386  0.42804496  0.52304535     0.15710
H461        H  0.14410099  0.40361332  0.34479806     0.15420
N462        N  0.13540144  0.44152055  0.37865130     0.74510
O463        O  0.20358395  0.40643393  0.52380382    -0.38940
O464        O  0.19241249  0.37423575  0.46540014    -0.38880
O465        O  0.15197167  0.46750759  0.37298030    -0.39590
O466        O  0.11415753  0.42803212  0.34917888    -0.39650
C467        C  0.08460756  0.22695001  0.45151147    -0.11930
C468        C  0.05527142  0.21250565  0.44521391     0.05070
C469        C  0.04236263  0.22132085  0.41008136    -0.07220
C470        C  0.05957641  0.24425065  0.38034089    -0.07970
C471        C  0.08929782  0.25862195  0.38558939    -0.02520
C472        C  0.10185563  0.24997252  0.42261127     0.04300
N473        N  0.13199209  0.26289782  0.42966673     0.66810
H474        H  0.09424880  0.22009577  0.47900862     0.15710
H475        H  0.04963107  0.25042905  0.35227575     0.15420
N476        N  0.01210868  0.20636387  0.40209032     0.74510
O477        O  0.14590258  0.28664655  0.45189142    -0.38940
O478        O  0.14300805  0.24792936  0.42572089    -0.38880
O479        O  0.99619179  0.20596183  0.43670279    -0.39590
O480        O  0.00191306  0.19844195  0.35791191    -0.39650
C481        C  0.44760867  0.43487980  0.52672435    -0.11930
C482        C  0.44769724  0.45707630  0.50209267     0.05070
C483        C  0.42050075  0.45416485  0.49930281    -0.07220
C484        C  0.39620146  0.42694998  0.49579679    -0.07970
C485        C  0.39750237  0.40307454  0.50690119    -0.02520
C486        C  0.42382427  0.40750766  0.52446742     0.04300
N487        N  0.42778112  0.38460835  0.53448964     0.66810
H488        H  0.46657633  0.43833772  0.54536275     0.15710
H489        H  0.37550905  0.42471652  0.49152932     0.15420
N490        N  0.41606015  0.47479772  0.52339740     0.74510
O491        O  0.42128363  0.36591383  0.50050935    -0.38940
O492        O  0.44323656  0.38626826  0.57138056    -0.38880
O493        O  0.39361969  0.47492703  0.51364611    -0.39590
O494        O  0.42969426  0.48680822  0.56382163    -0.39650
C495        C  0.01487654  0.07482838  0.43267817    -0.11930
C496        C  0.01560466  0.06081337  0.47528329     0.05070
C497        C  0.01940333  0.07326447  0.52413075    -0.07220
C498        C  0.02283970  0.09980547  0.52871131    -0.07970
C499        C  0.02067886  0.11329523  0.48652092    -0.02520
C500        C  0.01638857  0.10062934  0.43778459     0.04300
N501        N  0.51162701  0.11256415  0.39403435     0.66810
H502        H  0.51127313  0.06475592  0.39572490     0.15710
H503        H  0.02603838  0.10960676  0.56593961     0.15420
N504        N  0.01949130  0.05934843  0.56936151     0.74510
O505        O  0.51997981  0.10947287  0.35135485    -0.38940
O506        O  0.49561544  0.12254852  0.39641816    -0.38880
O507        O  0.03408626  0.07363610  0.60754406    -0.39590
O508        O  0.00293019  0.03324445  0.57345504    -0.39650
C509        C  0.07761866  0.07327280  0.49326272    -0.11930
C510        C  0.06322845  0.05201199  0.45587121     0.05070
C511        C  0.07803801  0.05340841  0.41103779    -0.07220
C512        C  0.10652597  0.07535560  0.40591372    -0.07970
C513        C  0.12039736  0.09694986  0.44270882    -0.02520
C514        C  0.10532264  0.09637024  0.48641029     0.04300
N515        N  0.11683422  0.11947122  0.52278692     0.66810
H516        H  0.06725589  0.07197659  0.52842891     0.15710
H517        H  0.11762304  0.07647419  0.37146956     0.15420
N518        N  0.06447422  0.03338262  0.36971962     0.74510
O519        O  0.10033822  0.12476602  0.54708586    -0.38940
O520        O  0.14325807  0.13449113  0.53148156    -0.38880
O521        O  0.03846404  0.02322199  0.35940065    -0.39590
O522        O  0.07911799  0.02804938  0.34003098    -0.39650
C523        C  0.45085806  0.02987859  0.49077189    -0.11930
C524        C  0.45822886  0.01487344  0.45731859     0.05070
C525        C  0.44552279  0.00798296  0.40865292    -0.07220
C526        C  0.42420892  0.01380694  0.39646517    -0.07970
C527        C  0.41375523  0.02533575  0.43223064    -0.02520
C528        C  0.42771054  0.03332614  0.48075640     0.04300
N529        N  0.41699556  0.04159521  0.52275046     0.66810
H530        H  0.46107119  0.03616748  0.52767034     0.15710
H531        H  0.41635595  0.00961517  0.35789669     0.15420
N532        N  0.45532456  0.49679521  0.36993358     0.74510
O533        O  0.39188927  0.02537615  0.53720039    -0.38940
O534        O  0.43393159  0.06234494  0.55079206    -0.38880
O535        O  0.48135778  0.50986851  0.35926358    -0.39590
O536        O  0.43771457  0.97780061  0.33971177    -0.39650
C537        C  0.05845172  0.48298923  0.43272543    -0.11930
C538        C  0.05202861  0.99576973  0.47259298     0.05070
C539        C  0.06667923  0.00130423  0.51924839    -0.07220
C540        C  0.08693399  0.99357004  0.52499195    -0.07970
C541        C  0.09480458  0.98223269  0.48453118    -0.02520
C542        C  0.08014657  0.47686989  0.43776024     0.04300
N543        N  0.08836284  0.46742428  0.39406996     0.66810
H544        H  0.04689533  0.47830430  0.39712238     0.15710
H545        H  0.09705879  0.99691778  0.56178390     0.15420
N546        N  0.06084461  0.01406133  0.56166347     0.74510
O547        O  0.06960657  0.44722914  0.36711894    -0.38940
O548        O  0.11266654  0.48321813  0.37612909    -0.38880
O549        O  0.03556486  0.00589596  0.57360235    -0.39590
O550        O  0.08091839  0.03134866  0.59069071    -0.39650
C551        C  0.47998562  0.40617326  0.41661208    -0.11930
C552        C  0.49298572  0.39777788  0.45172676     0.05070
C553        C  0.00668515  0.41455832  0.49539202    -0.07220
C554        C  0.00710636  0.43960298  0.50253473    -0.07970
C555        C  0.49526339  0.44885480  0.46637075    -0.02520
C556        C  0.48130941  0.43179022  0.42321285     0.04300
N557        N  0.46981166  0.44083329  0.38467073     0.66810
H558        H  0.46958069  0.39314658  0.38315940     0.15710
H559        H  0.01717935  0.45236227  0.53629330     0.15420
N560        N  0.02075695  0.40692759  0.53203517     0.74510
O561        O  0.48603681  0.46325816  0.36233944    -0.38940
O562        O  0.44525787  0.42410543  0.36647339    -0.38880
O563        O  0.03473511  0.39583009  0.51808443    -0.39590
O564        O  0.02237750  0.41458867  0.57779996    -0.39650
C565        C  0.21191492  0.15736409  0.81305299    -0.11930
C566        C  0.23721064  0.16589246  0.84055618     0.05070
C567        C  0.23888446  0.17463876  0.89197085    -0.07220
C568        C  0.21521003  0.17382896  0.91433323    -0.07970
C569        C  0.19017079  0.16534153  0.88639882    -0.02520
C570        C  0.18874285  0.15747584  0.83483298     0.04300
N571        N  0.16425902  0.15028206  0.80365259     0.66810
H572        H  0.21021091  0.15091847  0.77365206     0.15710
H573        H  0.21645457  0.18019618  0.95369986     0.15420
N574        N  0.26458858  0.18547911  0.92150082     0.74510
O575        O  0.15692256  0.13238893  0.76779574    -0.38940
O576        O  0.15220294  0.16430745  0.80755872    -0.38880
O577        O  0.28755441  0.20577475  0.90569890    -0.39590
O578        O  0.26340816  0.17842304  0.96679763    -0.39650
C579        C  0.36350756  0.29733000  0.92951594    -0.11930
C580        C  0.36635337  0.29129912  0.97953591     0.05070
C581        C  0.36592390  0.26639088  0.99015941    -0.07220
C582        C  0.36285450  0.24819726  0.94964277    -0.07970
C583        C  0.35972567  0.25415586  0.89946300    -0.02520
C584        C  0.35940697  0.27877713  0.88955757     0.04300
N585        N  0.35260497  0.28416065  0.84023768     0.66810
H586        H  0.36269805  0.31594683  0.92189447     0.15710
H587        H  0.36309097  0.22929642  0.95722225     0.15420
N588        N  0.36869619  0.25936742  0.04108967     0.74510
O589        O  0.33094738  0.26523873  0.81624940    -0.38940
O590        O  0.36502663  0.30894148  0.82467854    -0.38880
O591        O  0.38211994  0.27835747  0.07460921    -0.39590
O592        O  0.35981372  0.23420098  0.05176902    -0.39650
C593        C  0.43212245  0.15386639  0.57287797    -0.11930
C594        C  0.43943724  0.17213501  0.61475945     0.05070
C595        C  0.46772467  0.18745169  0.63331603    -0.07220
C596        C  0.48830589  0.18429509  0.60901304    -0.07970
C597        C  0.48093738  0.16609372  0.56688144    -0.02520
C598        C  0.45270633  0.15103436  0.54779978     0.04300
N599        N  0.44476857  0.13383556  0.50224900     0.66810
H600        H  0.41023666  0.14186044  0.55946921     0.15710
H601        H  0.01023037  0.19639746  0.62243029     0.15420
N602        N  0.47603878  0.20698966  0.67526123     0.74510
O603        O  0.42002263  0.11259106  0.49732704    -0.38940
O604        O  0.46044403  0.14217925  0.46406190    -0.38880
O605        O  0.47240617  0.19819978  0.71971712    -0.39590
O606        O  0.49235550  0.23286802  0.66815065    -0.39650
C607        C  0.46773237  0.29678691  0.54498130    -0.11930
C608        C  0.45648390  0.30059285  0.50038331     0.05070
C609        C  0.42654152  0.28600660  0.49289359    -0.07220
C610        C  0.40895939  0.26928612  0.53183141    -0.07970
C611        C  0.42007462  0.26607577  0.57731825    -0.02520
C612        C  0.45013590  0.27916985  0.58330096     0.04300
N613        N  0.46339632  0.27440703  0.62612368     0.66810
H614        H  0.49064591  0.30820164  0.55012821     0.15710
H615        H  0.38605489  0.25804578  0.52644083     0.15420
N616        N  0.41360112  0.28747278  0.44623621     0.74510
O617        O  0.49010948  0.28574435  0.62863292    -0.38940
O618        O  0.44884389  0.25780237  0.66022561    -0.38880
O619        O  0.38687999  0.27549616  0.44193116    -0.39590
O620        O  0.42825556  0.29796306  0.40740559    -0.39650
C621        C  0.43043949  0.24612307  0.88584792    -0.11930
C622        C  0.43933604  0.25714975  0.83767803     0.05070
C623        C  0.45480814  0.28657364  0.83246358    -0.07220
C624        C  0.46032502  0.30404208  0.87507703    -0.07970
C625        C  0.45169865  0.29305364  0.92326872    -0.02520
C626        C  0.43670517  0.26356986  0.92894619     0.04300
N627        N  0.42746688  0.25097337  0.97754059     0.66810
H628        H  0.41692411  0.22363798  0.88962780     0.15710
H629        H  0.47301698  0.32658563  0.87095010     0.15420
N630        N  0.46522534  0.29899751  0.78432174     0.74510
O631        O  0.42309470  0.26363528  0.01318132    -0.38940
O632        O  0.42234697  0.22642812  0.98436822    -0.38880
O633        O  0.46752664  0.32213464  0.77436328    -0.39590
O634        O  0.47496844  0.28844123  0.75380519    -0.39650
C635        C  0.38621832  0.14156265  0.96421982    -0.11930
C636        C  0.39913922  0.15700845  0.92072344     0.05070
C637        C  0.42851225  0.16616605  0.91382443    -0.07220
C638        C  0.44297069  0.15842296  0.94681195    -0.07970
C639        C  0.42993828  0.14191441  0.98826712    -0.02520
C640        C  0.40120737  0.13398489  0.99854684     0.04300
N641        N  0.38685918  0.11840328  0.04274975     0.66810
H642        H  0.36401045  0.13432282  0.97021307     0.15710
H643        H  0.46492101  0.16504784  0.93907776     0.15420
N644        N  0.44424495  0.18265892  0.87196559     0.74510
O645        O  0.36241007  0.11374021  0.05327142    -0.38940
O646        O  0.39873295  0.11015721  0.07274464    -0.38880
O647        O  0.45409791  0.20873424  0.87363496    -0.39590
O648        O  0.45392746  0.17266654  0.84008227    -0.39650
C649        C  0.30598275  0.28982448  0.59896270    -0.11930
C650        C  0.33209921  0.30520657  0.57373331     0.05070
C651        C  0.35319082  0.29850023  0.58223161    -0.07220
C652        C  0.34859304  0.27816392  0.61689035    -0.07970
C653        C  0.32288950  0.26290669  0.64277622    -0.02520
C654        C  0.30097710  0.26859928  0.63342920     0.04300
N655        N  0.27431890  0.25413102  0.65936108     0.66810
H656        H  0.28968816  0.29488483  0.59265347     0.15710
H657        H  0.36509960  0.27324768  0.62182590     0.15420
N658        N  0.37871743  0.31076579  0.55341536     0.74510
O659        O  0.25260836  0.25330795  0.64126990    -0.38940
O660        O  0.27284564  0.24429588  0.70246277    -0.38880
O661        O  0.40225502  0.31802106  0.57457742    -0.39590
O662        O  0.37720641  0.31099312  0.50588678    -0.39650
C663        C  0.26126553  0.18541603  0.53429102    -0.11930
C664        C  0.27799784  0.17366582  0.52264726     0.05070
C665        C  0.27099226  0.15645004  0.47821613    -0.07220
C666        C  0.24555042  0.14881344  0.45113809    -0.07970
C667        C  0.22724901  0.15800425  0.46726735    -0.02520
C668        C  0.23554385  0.17696987  0.50917104     0.04300
N669        N  0.21731746  0.18613770  0.52979209     0.66810
H670        H  0.26692002  0.19943822  0.56711701     0.15710
H671        H  0.23979445  0.13543279  0.41746770     0.15420
N672        N  0.28906812  0.14665120  0.46006026     0.74510
O673        O  0.21696863  0.18989586  0.57694061    -0.38940
O674        O  0.20329312  0.19268070  0.50148638    -0.38880
O675        O  0.31571502  0.16199561  0.46537747    -0.39590
O676        O  0.27899219  0.12500408  0.43151393    -0.39650
C677        C  0.32453841  0.05020536  0.80801092    -0.11930
C678        C  0.35209797  0.07082361  0.79302090     0.05070
C679        C  0.37521912  0.06847719  0.80894668    -0.07220
C680        C  0.37021873  0.04649525  0.84065525    -0.07970
C681        C  0.34235758  0.02487687  0.85360357    -0.02520
C682        C  0.31927579  0.02698375  0.83570669     0.04300
N683        N  0.29021637  0.00526956  0.84247816     0.66810
H684        H  0.30630671  0.05149604  0.79659246     0.15710
H685        H  0.38878689  0.04677890  0.85497165     0.15420
N686        N  0.40337349  0.08637995  0.79036950     0.74510
O687        O  0.27234090  0.01154371  0.85735959    -0.38940
O688        O  0.28164271  0.48049053  0.82572074    -0.38880
O689        O  0.41647591  0.11248663  0.79951632    -0.39590
O690        O  0.41684767  0.07558530  0.77209934    -0.39650
C691        C  0.25614730  0.06982115  0.90476422    -0.11930
C692        C  0.25131570  0.07143054  0.85331015     0.05070
C693        C  0.22312395  0.05776303  0.83413847    -0.07220
C694        C  0.20046981  0.04303548  0.86687680    -0.07970
C695        C  0.20524327  0.04194664  0.91862873    -0.02520
C696        C  0.23355513  0.05586078  0.93793278     0.04300
N697        N  0.23977694  0.05747244  0.99115977     0.66810
H698        H  0.27774403  0.08121676  0.91984809     0.15710
H699        H  0.17893456  0.03218143  0.85157112     0.15420
N700        N  0.21699455  0.06024841  0.78255809     0.74510
O701        O  0.26178772  0.05785144  0.00627650    -0.38940
O702        O  0.22512208  0.06160460  0.02286841    -0.38880
O703        O  0.22453357  0.04983560  0.74759393    -0.39590
O704        O  0.19969022  0.06803269  0.77262747    -0.39650
C705        C  0.21439692  0.04086578  0.54995373    -0.11930
C706        C  0.18731337  0.02344008  0.56888646     0.05070
C707        C  0.17898005  0.03225594  0.61307316    -0.07220
C708        C  0.19824114  0.05825922  0.63702472    -0.07970
C709        C  0.22549881  0.07555369  0.61820305    -0.02520
C710        C  0.23342171  0.06681460  0.57354212     0.04300
N711        N  0.26066968  0.08426795  0.55121805     0.66810
H712        H  0.22025298  0.03484346  0.51493740     0.15710
H713        H  0.19251057  0.06429162  0.67209262     0.15420
N714        N  0.15131011  0.01491058  0.63446169     0.74510
O715        O  0.27210479  0.07333230  0.52595275    -0.38940
O716        O  0.27061902  0.11026099  0.54851646    -0.38880
O717        O  0.13901797  0.98848185  0.63151373    -0.39590
O718        O  0.13998259  0.02594530  0.65976483    -0.39650
C719        C  0.32951602  0.06325932  0.55632771    -0.11930
C720        C  0.33568673  0.09042500  0.54555924     0.05070
C721        C  0.34741349  0.10153067  0.49758780    -0.07220
C722        C  0.35291558  0.08568705  0.46316406    -0.07970
C723        C  0.34766753  0.05925019  0.47493055    -0.02520
C724        C  0.33528861  0.04740007  0.52163122     0.04300
N725        N  0.32869233  0.01967848  0.53472448     0.66810
H726        H  0.32038615  0.05436526  0.59230124     0.15710
H727        H  0.36236506  0.09457818  0.42727931     0.15420
N728        N  0.35466499  0.12902587  0.48284735     0.74510
O729        O  0.32677406  0.01315628  0.58050222    -0.38940
O730        O  0.32232575  0.00084284  0.50103020    -0.38880
O731        O  0.37730586  0.15012387  0.50006728    -0.39590
O732        O  0.34356792  0.13146789  0.44301010    -0.39650
O733        O  0.34048295  0.63280027  0.57477687    -0.86160
O734        O  0.28979437  0.61712044  0.84703949    -0.86320
O735        O  0.33184907  0.58696392  0.73597015    -0.87990
O736        O  0.26508201  0.58918340  0.66794084    -0.86750
O737        O  0.25123696  0.62149117  0.66078610    -0.86340
O738        O  0.37542876  0.61961175  0.76927577    -0.87710
O739        O  0.27867825  0.58680927  0.77856192    -0.86190
O740        O  0.32101054  0.59636250  0.62870758    -0.85770
Zr741      Zr  0.31040390  0.61251481  0.70942039     2.84310
O742        O  0.29378015  0.63835908  0.75258625    -1.07750
O743        O  0.35580347  0.64294132  0.68044797    -1.08480
C744        C  0.33167219  0.60735512  0.58549387     1.06950
C745        C  0.27510052  0.59292588  0.82430914     1.06900
C746        C  0.35425493  0.59398136  0.76250291     1.09880
C747        C  0.24816364  0.59687113  0.65220486     1.07660
H748        H  0.33795361  0.62418930  0.80518371     0.33220
O749        O  0.33882885  0.63692378  0.78024634    -1.28700
H750        H  0.29788422  0.63344111  0.62487542     0.32890
O751        O  0.30887508  0.64343634  0.65445670    -1.30380
O752        O  0.34211896  0.70785001  0.86950115    -0.86150
O753        O  0.38555617  0.71952242  0.59169499    -0.87650
O754        O  0.39373986  0.66129706  0.83506716    -0.86230
O755        O  0.26075683  0.66675153  0.76484625    -0.86280
O756        O  0.28194532  0.66977614  0.60837073    -0.85990
O757        O  0.41693167  0.67182244  0.68829903    -0.85790
O758        O  0.41508595  0.74764860  0.76081263    -0.86160
O759        O  0.34379580  0.74867225  0.70248848    -0.85630
O760        O  0.41799688  0.71217951  0.79552184    -0.86690
O761        O  0.29982178  0.71503648  0.67105248    -0.85850
O762        O  0.35858874  0.65997203  0.88300434    -0.86250
O763        O  0.39757748  0.67374345  0.61243389    -0.85970
O764        O  0.31957080  0.67515880  0.56230209    -0.85620
O765        O  0.28023262  0.66428459  0.84007043    -0.86030
O766        O  0.36590132  0.74387080  0.81453273    -0.86320
O767        O  0.39637836  0.75114306  0.65751551    -0.87660
Zr768      Zr  0.32415499  0.66408750  0.82216984     2.83100
Zr769      Zr  0.35365342  0.67402854  0.62435776     2.83500
Zr770      Zr  0.38428434  0.66724718  0.75108258     2.84090
Zr771      Zr  0.29069932  0.66814268  0.69568793     2.83360
Zr772      Zr  0.36710941  0.72480559  0.73100942     2.84220
O773        O  0.33607856  0.69921076  0.66463791    -1.08230
O774        O  0.36836404  0.69437028  0.78922262    -1.07730
C775        C  0.35587721  0.73402024  0.85844122     1.06920
C776        C  0.39935402  0.74442485  0.61148832     1.09540
C777        C  0.38231613  0.65972356  0.87769011     1.07100
C778        C  0.26107029  0.66565565  0.81367084     1.07460
C779        C  0.29482686  0.67289768  0.56649316     1.07040
C780        C  0.41666964  0.67308183  0.64009002     1.06590
C781        C  0.42462474  0.73811834  0.79389906     1.07020
C782        C  0.32109580  0.74077988  0.67590229     1.06530
H783        H  0.40352978  0.71088953  0.68211728     0.33210
O784        O  0.38431498  0.69857308  0.69298160    -1.29330
H785        H  0.31502293  0.70564349  0.77949848     0.33230
O786        O  0.32173569  0.69445958  0.76342767    -1.30720
C787        C  0.47596840  0.98160197  0.48166151     0.02620
C788        C  0.49943097  0.97742094  0.47317895     0.02620
C789        C  0.02771879  0.50040116  0.46757070     0.02620
C790        C  0.03324907  0.52792458  0.46510771     0.02620
C791        C  0.01001854  0.53208938  0.46882327     0.02620
C792        C  0.48128458  0.50910862  0.47154247     0.02620
C793        C  0.00353179  0.66583354  0.53937415     0.03460
C794        C  0.00342364  0.64097436  0.53121931    -0.12690
C795        C  0.02159363  0.63985514  0.49555710     0.00960
C796        C  0.03949706  0.66369613  0.46797258    -0.11210
C797        C  0.03875985  0.68821936  0.47601812     0.03450
C798        C  0.02209433  0.68972897  0.51356849    -0.10630
H799        H  0.98824921  0.62225048  0.55069372     0.09050
H800        H  0.05329694  0.66297906  0.43960288     0.06580
H801        H  0.02197614  0.70897357  0.52000827     0.06430
C802        C  0.14784466  0.95591832  0.48610371     0.03460
C803        C  0.12257075  0.95649136  0.47628939    -0.12690
C804        C  0.12034010  0.47965226  0.49249464     0.00960
C805        C  0.14303558  0.50153921  0.51971739    -0.11210
C806        C  0.16611560  0.49987749  0.53585124     0.03450
C807        C  0.16919960  0.47757988  0.51766337    -0.10630
H808        H  0.10496216  0.93924810  0.45546736     0.09050
H809        H  0.14248896  0.52021073  0.53007012     0.06580
H810        H  0.18842565  0.47762038  0.52685810     0.06430
C811        C  0.35642364  0.54502796  0.43838663     0.03460
C812        C  0.38246203  0.54653924  0.44486485    -0.12690
C813        C  0.38852351  0.52819651  0.41794483     0.00960
C814        C  0.36916601  0.51151524  0.37831354    -0.11210
C815        C  0.34430400  0.51231394  0.36773737     0.03450
C816        C  0.33785533  0.52864863  0.39917925    -0.10630
H817        H  0.39727164  0.56158728  0.47229309     0.09050
H818        H  0.37237402  0.99681228  0.35654916     0.06580
H819        H  0.31763118  0.52747125  0.39504693     0.06430
C820        C  0.01438601  0.84718281  0.40693215     0.03460
C821        C  0.49641287  0.82362905  0.43630942    -0.12690
C822        C  0.47587369  0.82410690  0.46782169     0.00960
C823        C  0.47422194  0.84826836  0.47087661    -0.11210
C824        C  0.49205346  0.87145355  0.44240867     0.03450
C825        C  0.01157521  0.87072375  0.40977272    -0.10630
H826        H  0.49848378  0.80533065  0.43480620     0.09050
H827        H  0.45954218  0.84933313  0.49675713     0.06580
H828        H  0.02576715  0.88921965  0.38876280     0.06430
C829        C  0.20064887  0.64957448  0.43834101     0.03460
C830        C  0.20102205  0.66886942  0.40497434    -0.12690
C831        C  0.17559357  0.66607966  0.38731178     0.00960
C832        C  0.14952702  0.64225178  0.39973064    -0.11210
C833        C  0.14865663  0.62163838  0.43037635     0.03450
C834        C  0.17439982  0.62549777  0.45018800    -0.10630
H835        H  0.22117089  0.68753562  0.39659431     0.09050
H836        H  0.12973531  0.64017474  0.38705789     0.06580
H837        H  0.17389288  0.61060484  0.47637048     0.06430
C838        C  0.33757530  0.82822138  0.53870887     0.03460
C839        C  0.36352438  0.85447024  0.54173519    -0.12690
C840        C  0.37052988  0.87490435  0.50483435     0.00960
C841        C  0.35048260  0.86919511  0.46647728    -0.11210
C842        C  0.32391819  0.84444052  0.46532064     0.03450
C843        C  0.31760678  0.82366329  0.50061417    -0.10630
H844        H  0.37813241  0.85880188  0.57291775     0.09050
H845        H  0.35504851  0.88458748  0.43800523     0.06580
H846        H  0.29720082  0.80418775  0.49852375     0.06430
O847        O  0.13325957  0.79461294  0.35889545    -0.86160
O848        O  0.11351695  0.82769151  0.09213929    -0.86320
O849        O  0.09209879  0.82784850  0.26468435    -0.87990
O850        O  0.08431501  0.75531841  0.19766492    -0.86750
O851        O  0.11461278  0.74124284  0.17134490    -0.86340
O852        O  0.12828970  0.87391260  0.27377245    -0.87710
O853        O  0.08401435  0.80578032  0.15850659    -0.86190
O854        O  0.09508668  0.77973567  0.30565656    -0.85770
Zr855      Zr  0.11270360  0.80378369  0.22556084     2.84310
O856        O  0.13442039  0.79742893  0.15515653    -1.07750
O857        O  0.14579783  0.83818313  0.28176403    -1.08480
C858        C  0.10677006  0.77945620  0.34801949     1.06950
C859        C  0.08931387  0.81667514  0.11459180     1.06900
C860        C  0.10233293  0.85328964  0.28018879     1.09880
C861        C  0.08920813  0.73687362  0.17823788     1.07660
H862        H  0.12805343  0.85435539  0.17631983     0.33220
O863        O  0.13990062  0.84711242  0.18609746    -1.28700
H864        H  0.13075017  0.76996758  0.26878250     0.32890
O865        O  0.14190779  0.78799657  0.25349342    -1.30380
O866        O  0.20490597  0.86877398  0.06871396    -0.86150
O867        O  0.22111468  0.83686465  0.34342286    -0.87650
O868        O  0.17264176  0.90967469  0.17640256    -0.86230
O869        O  0.15536058  0.76881660  0.09458363    -0.86280
O870        O  0.16908672  0.75576418  0.24961063    -0.85990
O871        O  0.18396417  0.89635968  0.32833002    -0.85790
O872        O  0.25387899  0.90575919  0.23193060    -0.86160
O873        O  0.24487142  0.83130240  0.16682793    -0.85630
O874        O  0.22383943  0.92097721  0.25589137    -0.86690
O875        O  0.20885620  0.78528620  0.15482371    -0.85850
O876        O  0.16639175  0.88551274  0.10126013    -0.86250
O877        O  0.16981700  0.85648756  0.37180464    -0.85970
O878        O  0.17484469  0.77909323  0.32556803    -0.85620
O879        O  0.15338351  0.80323626  0.05185208    -0.86030
O880        O  0.24264112  0.88072300  0.12234507    -0.86320
O881        O  0.25047673  0.85156236  0.27513030    -0.87660
Zr882      Zr  0.16184864  0.84032255  0.11586218     2.83100
Zr883      Zr  0.17459161  0.82256470  0.31173995     2.83500
Zr884      Zr  0.17424559  0.88086745  0.24199645     2.84090
Zr885      Zr  0.16417262  0.78193854  0.18306796     2.83360
Zr886      Zr  0.22522426  0.85738037  0.20302304     2.84220
O887        O  0.19671866  0.81510726  0.24226764    -1.08230
O888        O  0.19631756  0.87351086  0.17322496    -1.07730
C889        C  0.23175356  0.88199665  0.07970243     1.06920
C890        C  0.24488128  0.84442177  0.32193242     1.09540
C891        C  0.17004240  0.90695393  0.12784095     1.07100
C892        C  0.15171546  0.77914037  0.05431279     1.07460
C893        C  0.17280081  0.75855479  0.29802587     1.07040
C894        C  0.17435585  0.88193054  0.36810093     1.06590
C895        C  0.24885437  0.92398626  0.25217094     1.07020
C896        C  0.23506863  0.80579780  0.15152701     1.06530
H897        H  0.21653452  0.87724526  0.29721338     0.33210
O898        O  0.20302524  0.86458018  0.27203205    -1.29330
H899        H  0.20096001  0.82295724  0.11491916     0.33230
O900        O  0.19162252  0.82493923  0.14406460    -1.30720
C901        C  0.44749223  0.63306450  0.01716634     0.03460
C902        C  0.46937762  0.65221676  0.05098011    -0.12690
C903        C  0.48857551  0.64563327  0.07374255     0.00960
C904        C  0.48566037  0.61963360  0.06084577    -0.11210
C905        C  0.46568362  0.60124613  0.02439683     0.03450
C906        C  0.44643258  0.60792435  0.00304430    -0.10630
H907        H  0.47202925  0.67267468  0.05783125     0.09050
H908        H  0.99987977  0.61396475  0.07763866     0.06580
H909        H  0.43133932  0.59409090  0.97412761     0.06430
C910        C  0.49068061  0.51616350  0.95646270     0.02620
C911        C  0.46737417  0.98829084  0.95277332     0.02620
C912        C  0.47082508  0.96527550  0.95993675     0.02620
C913        C  0.99855548  0.96961561  0.95904724     0.02620
C914        C  0.02260020  0.99738781  0.95590861     0.02620
C915        C  0.01874751  0.52097742  0.95733590     0.02620
C916        C  0.15840062  0.98670745  0.01118480     0.03460
C917        C  0.18176841  0.00514006  0.98241588    -0.12690
C918        C  0.18060115  0.52419149  0.95066577     0.00960
C919        C  0.15542781  0.52476284  0.94750310    -0.11210
C920        C  0.13178415  0.00644319  0.97607597     0.03450
C921        C  0.13319011  0.98722541  0.00746256    -0.10630
H922        H  0.20110622  0.00449996  0.98431370     0.09050
H923        H  0.15413078  0.53932773  0.92284620     0.06580
H924        H  0.11456425  0.97245126  0.02804776     0.06430
C925        C  0.00157935  0.83127612  0.03099968     0.03460
C926        C  0.48228005  0.80946097  0.99893058    -0.12690
C927        C  0.46446123  0.81299989  0.96671222     0.00960
C928        C  0.46502243  0.83849575  0.96837636    -0.11210
C929        C  0.48578449  0.86167325  0.99788531     0.03450
C930        C  0.00384802  0.85758535  0.02953283    -0.10630
H931        H  0.48315737  0.79048689  0.99549365     0.08690
H932        H  0.45088231  0.84083681  0.94316137     0.06580
H933        H  0.02090874  0.87515918  0.05064255     0.06430
C934        C  0.13923595  0.68622538  0.94079225     0.03460
C935        C  0.16489674  0.68747175  0.92754858    -0.12690
C936        C  0.16502083  0.66330242  0.91143045     0.00960
C937        C  0.14024582  0.63697480  0.91505689    -0.11210
C938        C  0.11487243  0.63452800  0.93131113     0.03450
C939        C  0.11422427  0.65905429  0.94211162    -0.10630
H940        H  0.18500983  0.70707467  0.92873110     0.09050
H941        H  0.14072462  0.61828671  0.90468438     0.06580
H942        H  0.09379098  0.65623173  0.95094307     0.06430
C943        C  0.33821440  0.00025832  0.88352984     0.03460
C944        C  0.31488541  0.98471115  0.91596340    -0.12690
C945        C  0.31153210  0.96091463  0.94018408     0.00960
C946        C  0.33223900  0.95378293  0.93510204    -0.11210
C947        C  0.35730172  0.97126728  0.91004364     0.03450
C948        C  0.35899052  0.99276479  0.88106323    -0.10630
H949        H  0.29975126  0.99112277  0.92364441     0.09050
H950        H  0.32951809  0.93551779  0.95376936     0.06580
H951        H  0.37746800  0.50452034  0.85818187     0.06430
C952        C  0.36682590  0.81055195  0.01897307     0.03460
C953        C  0.34240365  0.80254146  0.04725520    -0.12690
C954        C  0.33864970  0.82297233  0.07162572     0.00960
C955        C  0.35969425  0.85160593  0.06751553    -0.11210
C956        C  0.38475009  0.85951797  0.04095117     0.03450
C957        C  0.38840690  0.83878424  0.01804523    -0.10630
H958        H  0.32511839  0.78080624  0.04601858     0.09050
H959        H  0.35588251  0.86762152  0.08245386     0.06580
H960        H  0.40668225  0.84491472  0.99433059     0.06430
C961        C  0.41956489  0.97534340  0.97907831    -0.11930
C962        C  0.43901112  0.98304312  0.94014297     0.05070
C963        C  0.43096493  0.98416051  0.88965560    -0.07220
C964        C  0.40289493  0.97716515  0.88029225    -0.07970
C965        C  0.38347490  0.97053877  0.91979441    -0.02520
C966        C  0.39192017  0.96876483  0.96957411     0.04300
N967        N  0.37343360  0.96164084  0.01166132     0.66810
H968        H  0.42601804  0.97441670  0.01739265     0.15710
H969        H  0.39610273  0.47742664  0.84214750     0.15420
N970        N  0.45002970  0.49182105  0.84792916     0.74510
O971        O  0.37796102  0.98067021  0.04374621    -0.38940
O972        O  0.35947093  0.93636633  0.02463035    -0.38880
O973        O  0.47168359  0.48953889  0.84971845    -0.39590
O974        O  0.44470751  0.49998201  0.80754271    -0.39650
C975        C  0.05729181  0.55801986  0.90683325    -0.11930
C976        C  0.04382739  0.55031508  0.95359160     0.05070
C977        C  0.05331744  0.57100000  0.99321334    -0.07220
C978        C  0.07570113  0.59863465  0.98407556    -0.07970
C979        C  0.08909826  0.60605998  0.93703344    -0.02520
C980        C  0.07936006  0.58542773  0.89772491     0.04300
N981        N  0.09072168  0.59215217  0.84774213     0.66810
H982        H  0.04937170  0.54291131  0.87582406     0.15710
H983        H  0.08353223  0.61431656  0.01452838     0.15420
N984        N  0.04119960  0.56450502  0.04281684     0.74510
O985        O  0.09229195  0.57407285  0.82061773    -0.38940
O986        O  0.09580221  0.61472378  0.82827459    -0.38880
O987        O  0.03046214  0.54009090  0.05951325    -0.39590
O988        O  0.04286016  0.58370357  0.07163622    -0.39650
C989        C  0.08993712  0.99651046  0.92505455    -0.11930
C990        C  0.10505148  0.00637768  0.97087301     0.05070
C991        C  0.09398485  0.51492260  0.01091833    -0.07220
C992        C  0.06717015  0.51195223  0.00438440    -0.07970
C993        C  0.05177969  0.00181836  0.95849312    -0.02520
C994        C  0.06363222  0.99439119  0.91800935     0.04300
N995        N  0.04964442  0.98481137  0.86957323     0.66810
H996        H  0.09880893  0.99040593  0.89436189     0.15710
H997        H  0.05810360  0.51743261  0.03542996     0.15420
N998        N  0.10966947  0.52689792  0.05765752     0.74510
O999        O  0.03953129  0.99783472  0.84828751    -0.38940
O1000       O  0.05143788  0.96625592  0.84444244    -0.38880
O1001       O  0.13651721  0.54139381  0.05811876    -0.39590
O1002       O  0.09674254  0.52580540  0.09767337    -0.39650
C1003       C  0.00764845  0.93925664  0.01338194    -0.11930
C1004       C  0.00148930  0.94455229  0.96481081     0.05070
C1005       C  0.49180465  0.92301982  0.92681563    -0.07220
C1006       C  0.48840253  0.89712694  0.93905896    -0.07970
C1007       C  0.49151553  0.89065368  0.98872200    -0.02520
C1008       C  0.00138752  0.91230191  0.02654708     0.04300
N1009       N  0.00305967  0.90699524  0.07892474     0.66810
H1010       H  0.01426648  0.95540151  0.04280552     0.15710
H1011       H  0.48278521  0.88155713  0.90900686     0.15420
N1012       N  0.48437783  0.92627726  0.87611229     0.74510
O1013       O  0.02227723  0.92584213  0.10738526    -0.38940
O1014       O  0.98327471  0.88507906  0.09832643    -0.38880
O1015       O  0.49117319  0.95000860  0.86007364    -0.39590
O1016       O  0.47064952  0.90512547  0.84670412    -0.39650
C1017       C  0.44833744  0.93358672  0.03178423    -0.11930
C1018       C  0.44659254  0.93845830  0.98026517     0.05070
C1019       C  0.42170409  0.91890090  0.95221659    -0.07220
C1020       C  0.40086812  0.89460655  0.97558994    -0.07970
C1021       C  0.40401945  0.88872868  0.02549387    -0.02520
C1022       C  0.42781763  0.90873695  0.05476339     0.04300
N1023       N  0.43204508  0.90411012  0.10669734     0.66810
H1024       H  0.46635269  0.94935170  0.05413123     0.15710
H1025       H  0.38253505  0.87905632  0.95348210     0.15420
N1026       N  0.41677353  0.92276287  0.90051821     0.74510
O1027       O  0.45586302  0.91958077  0.12858401    -0.38940
O1028       O  0.41177551  0.88580786  0.13208314    -0.38880
O1029       O  0.43684494  0.93320382  0.86978107    -0.39590
O1030       O  0.39167808  0.91284644  0.88395314    -0.39650
C1031       C  0.47420503  0.57564116  0.95457746    -0.11930
C1032       C  0.46779559  0.57687619  0.00556744     0.05070
C1033       C  0.46815303  0.55764603  0.03905662    -0.07220
C1034       C  0.97641237  0.53902595  0.02122719    -0.07970
C1035       C  0.48446477  0.53873224  0.97094375    -0.02520
C1036       C  0.48228817  0.55672905  0.93643637     0.04300
N1037       N  0.48757249  0.55609882  0.88329946     0.66810
H1038       H  0.47404191  0.59045174  0.92900527     0.15710
H1039       H  0.97609639  0.52400216  0.04687558     0.15420
N1040       N  0.95995779  0.55656964  0.09098209     0.74510
O1041       O  0.47718234  0.56522317  0.85188189    -0.38940
O1042       O  0.50362315  0.54779657  0.86738660    -0.38880
O1043       O  0.44115254  0.56205664  0.10318642    -0.39590
O1044       O  0.96963313  0.54765394  0.12419655    -0.39650
C1045       C  0.11633566  0.71049376  0.98547086    -0.11930
C1046       C  0.13891954  0.71265106  0.95647789     0.05070
C1047       C  0.16150240  0.74043306  0.94614322    -0.07220
C1048       C  0.16460386  0.76340029  0.97553462    -0.07970
C1049       C  0.14360425  0.76007763  0.00932633    -0.02520
C1050       C  0.11765942  0.73403793  0.00916978     0.04300
N1051       N  0.09262254  0.73095518  0.03313367     0.66810
H1052       H  0.09762366  0.69042293  0.99199662     0.15710
H1053       H  0.18363400  0.78390359  0.97249663     0.15420
N1054       N  0.18039577  0.74597078  0.90474103     0.74510
O1055       O  0.06855587  0.70952365  0.02294014    -0.38940
O1056       O  0.09347389  0.75122459  0.05715750    -0.38880
O1057       O  0.17081097  0.73255118  0.86321799    -0.39590
O1058       O  0.20558072  0.76673461  0.90704124    -0.39650
C1059       C  0.29345680  0.82152479  0.06275578    -0.11930
C1060       C  0.31033143  0.81476520  0.09160033     0.05070
C1061       C  0.29925484  0.79944009  0.13630136    -0.07220
C1062       C  0.27216316  0.79316780  0.15247537    -0.07970
C1063       C  0.25615917  0.80162562  0.12500751    -0.02520
C1064       C  0.26647054  0.81494609  0.07853373     0.04300
N1065       N  0.25025630  0.82300589  0.04814048     0.66810
H1066       H  0.30154751  0.83220457  0.02754811     0.15710
H1067       H  0.26446453  0.78359920  0.18863329     0.15420
N1068       N  0.31544512  0.79134794  0.16688619     0.74510
O1069       O  0.26268529  0.84356279  0.01931522    -0.38940
O1070       O  0.22347705  0.80786278  0.04594913    -0.38880
O1071       O  0.34229907  0.80519667  0.16694369    -0.39590
O1072       O  0.30290940  0.77140033  0.19693829    -0.39650
C1073       C  0.05167012  0.84755224  0.04798373    -0.11930
C1074       C  0.02319303  0.82774748  0.05685716     0.05070
C1075       C  0.01610974  0.80333624  0.08390240    -0.07220
C1076       C  0.03799595  0.79908821  0.09944946    -0.07970
C1077       C  0.06658443  0.81926013  0.09082424    -0.02520
C1078       C  0.07325350  0.84402622  0.06617033     0.04300
N1079       N  0.10140977  0.86784259  0.06767931     0.66810
H1080       H  0.05738101  0.86640547  0.02775736     0.15710
H1081       H  0.03281592  0.78056774  0.12030773     0.15420
N1082       N  0.98718731  0.78327361  0.09695676     0.74510
O1083       O  0.11303401  0.87983489  0.02730815    -0.38940
O1084       O  0.11063685  0.88109229  0.10928977    -0.38880
O1085       O  0.97952933  0.75794688  0.10347705    -0.39590
O1086       O  0.97003730  0.79128633  0.10724318    -0.39650
C1087       C  0.03977078  0.66803417  0.10436710    -0.11930
C1088       C  0.01327775  0.66650242  0.10732231     0.05070
C1089       C  0.01135243  0.68533183  0.14152869    -0.07220
C1090       C  0.03618747  0.70705055  0.16570888    -0.07970
C1091       C  0.06312268  0.70986530  0.15984402    -0.02520
C1092       C  0.06417123  0.68848730  0.13180569     0.04300
N1093       N  0.08943808  0.68688067  0.13103818     0.66810
H1094       H  0.04192342  0.65351006  0.07973871     0.15710
H1095       H  0.03422627  0.72198008  0.18958914     0.15420
N1096       N  0.48441905  0.68226518  0.15356592     0.74510
O1097       O  0.10196979  0.68840597  0.17209733    -0.38940
O1098       O  0.09573773  0.67824782  0.09159772    -0.38880
O1099       O  0.46300069  0.65821564  0.16062364    -0.39590
O1100       O  0.98281031  0.70369052  0.16373234    -0.39650
C1101       C  0.26393264  0.92021947  0.95716773    -0.11930
C1102       C  0.28853144  0.94439236  0.97592388     0.05070
C1103       C  0.29428425  0.94793581  0.02859620    -0.07220
C1104       C  0.27586370  0.92651631  0.06062584    -0.07970
C1105       C  0.25158029  0.90186834  0.04204851    -0.02520
C1106       C  0.24535117  0.89885439  0.98937605     0.04300
N1107       N  0.22119364  0.87397148  0.96750670     0.66810
H1108       H  0.26018635  0.91712012  0.91667689     0.15710
H1109       H  0.28012232  0.92950217  0.10096518     0.15420
N1110       N  0.31886301  0.97276717  0.05015596     0.74510
O1111       O  0.20831853  0.87573367  0.92952499    -0.38940
O1112       O  0.21514053  0.84999324  0.98134875    -0.38880
O1113       O  0.33063394  0.99559492  0.02715911    -0.39590
O1114       O  0.32735846  0.97268885  0.09449070    -0.39650
C1115       C  0.15577782  0.94247810  0.12116718    -0.11930
C1116       C  0.16956628  0.92939021  0.10011494     0.05070
C1117       C  0.17989981  0.93564271  0.05060382    -0.07220
C1118       C  0.17421405  0.95286965  0.02188833    -0.07970
C1119       C  0.16078021  0.96636269  0.04276535    -0.02520
C1120       C  0.15172622  0.96133326  0.09344934     0.04300
N1121       N  0.13924083  0.97559935  0.11782585     0.66810
H1122       H  0.14797171  0.93788329  0.15937396     0.15710
H1123       H  0.18142344  0.95663850  0.98326811     0.15420
N1124       N  0.19809480  0.92650695  0.03061474     0.74510
O1125       O  0.11904574  0.96269034  0.14802823    -0.38940
O1126       O  0.15073027  0.00184269  0.11462461    -0.38880
O1127       O  0.21822807  0.92906965  0.05781924    -0.39590
O1128       O  0.19763322  0.92111163  0.98392636    -0.39650
C1129       C  0.26938225  0.85681030  0.40483980    -0.11930
C1130       C  0.26705241  0.84563260  0.35569995     0.05070
C1131       C  0.28266798  0.83260952  0.34362149    -0.07220
C1132       C  0.29991779  0.83099117  0.38112191    -0.07970
C1133       C  0.30216639  0.84237775  0.42993777    -0.02520
C1134       C  0.28700043  0.85582192  0.44183602     0.04300
N1135       N  0.28955786  0.86902889  0.49067373     0.66810
H1136       H  0.25687247  0.86606303  0.41496826     0.15710
H1137       H  0.31222957  0.82139532  0.37180754     0.15420
N1138       N  0.28036357  0.81982402  0.29478855     0.74510
O1139       O  0.28638042  0.88987057  0.49470444    -0.38940
O1140       O  0.29269866  0.85872967  0.53034702    -0.38880
O1141       O  0.28635332  0.83427951  0.25576632    -0.39590
O1142       O  0.27780769  0.79597839  0.29147405    -0.39650
C1143       C  0.15781467  0.70839060  0.30044607    -0.11930
C1144       C  0.17388658  0.73552194  0.32279093     0.05070
C1145       C  0.19204405  0.73989249  0.36446900    -0.07220
C1146       C  0.19258731  0.71695321  0.38370429    -0.07970
C1147       C  0.17617105  0.68981185  0.36176991    -0.02520
C1148       C  0.15932112  0.68570843  0.31835167     0.04300
N1149       N  0.14476834  0.65921491  0.29071417     0.66810
H1150       H  0.14452809  0.70496254  0.26750990     0.15710
H1151       H  0.20579465  0.72042016  0.41674384     0.15420
N1152       N  0.21139684  0.76735812  0.38586081     0.74510
O1153       O  0.12260315  0.65229777  0.26493943    -0.38940
O1154       O  0.15597044  0.64440918  0.28654773    -0.38880
O1155       O  0.20194992  0.78099345  0.40833835    -0.39590
O1156       O  0.23714640  0.77487822  0.39284593    -0.39650
C1157       C  0.08363579  0.85372774  0.36379203    -0.11930
C1158       C  0.08265266  0.85743828  0.31171074     0.05070
C1159       C  0.05861780  0.85675385  0.29067593    -0.07220
C1160       C  0.03647891  0.85277968  0.32278260    -0.07970
C1161       C  0.03747453  0.84901017  0.37498200    -0.02520
C1162       C  0.06170235  0.85001526  0.39593494     0.04300
N1163       N  0.06461288  0.84752409  0.44933493     0.66810
H1164       H  0.10139927  0.85284780  0.37935979     0.15710
H1165       H  0.01817303  0.85261343  0.30702728     0.15420
N1166       N  0.05603146  0.85934136  0.23711348     0.74510
O1167       O  0.07871645  0.83701972  0.46495194    -0.38940
O1168       O  0.05613116  0.85871781  0.48109374    -0.38880
O1169       O  0.03189858  0.85039181  0.21679983    -0.39590
O1170       O  0.07786195  0.87196623  0.21026492    -0.39650
C1171       C  0.31470465  0.96391051  0.33503815    -0.11930
C1172       C  0.32211310  0.99178490  0.33125165     0.05070
C1173       C  0.30536037  0.99812705  0.29927739    -0.07220
C1174       C  0.28109930  0.97594340  0.27366688    -0.07970
C1175       C  0.27373644  0.94797575  0.27879445    -0.02520
C1176       C  0.29088663  0.94230996  0.31014197     0.04300
N1177       N  0.28219072  0.91432789  0.32294453     0.66810
H1178       H  0.32608207  0.95836838  0.36122937     0.15710
H1179       H  0.26827668  0.98049610  0.24914706     0.15420
N1180       N  0.31283311  0.52665609  0.29184882     0.74510
O1181       O  0.29969843  0.90616566  0.31949045    -0.38940
O1182       O  0.26081876  0.90136103  0.35059409    -0.38880
O1183       O  0.33857714  0.54630034  0.29272880    -0.39590
O1184       O  0.29393667  0.53199606  0.27965144    -0.39650
C1185       C  0.16697185  0.92227141  0.48387605    -0.11930
C1186       C  0.15279755  0.93430878  0.45989585     0.05070
C1187       C  0.14475582  0.92672285  0.40882969    -0.07220
C1188       C  0.14965593  0.90731606  0.38425971    -0.07970
C1189       C  0.16455479  0.89576962  0.40623458    -0.02520
C1190       C  0.17359645  0.90357881  0.45761034     0.04300
N1191       N  0.19060099  0.89448579  0.48288753     0.66810
H1192       H  0.17355047  0.92803618  0.52304144     0.15710
H1193       H  0.14413198  0.90362717  0.34477623     0.15420
N1194       N  0.13542975  0.94153286  0.37862668     0.74510
O1195       O  0.20356254  0.90640689  0.52382754    -0.38940
O1196       O  0.19240156  0.87421792  0.46541021    -0.38880
O1197       O  0.15200184  0.96752051  0.37296546    -0.39590
O1198       O  0.11418972  0.92804801  0.34914473    -0.39650
C1199       C  0.08463322  0.72694535  0.45152303    -0.11930
C1200       C  0.05529541  0.71251663  0.44526715     0.05070
C1201       C  0.04238341  0.72134176  0.41016321    -0.07220
C1202       C  0.05959163  0.74426448  0.38040581    -0.07970
C1203       C  0.08931405  0.75862119  0.38561416    -0.02520
C1204       C  0.10187777  0.74996215  0.42260794     0.04300
N1205       N  0.13201517  0.76287040  0.42961640     0.66810
H1206       H  0.09427812  0.72008290  0.47899675     0.15710
H1207       H  0.04964101  0.75044789  0.35236024     0.15420
N1208       N  0.01212813  0.70639689  0.40221612     0.74510
O1209       O  0.14594538  0.78661292  0.45185682    -0.38940
O1210       O  0.14301436  0.74788875  0.42562193    -0.38880
O1211       O  0.99624243  0.70610878  0.43678248    -0.39590
O1212       O  0.00190842  0.69837883  0.35807418    -0.39650
C1213       C  0.44762507  0.93494457  0.52673567    -0.11930
C1214       C  0.44770606  0.95713019  0.50207496     0.05070
C1215       C  0.42050493  0.95420729  0.49926539    -0.07220
C1216       C  0.39621161  0.92698758  0.49577535    -0.07970
C1217       C  0.39751998  0.90311999  0.50691518    -0.02520
C1218       C  0.42384521  0.90756817  0.52449941     0.04300
N1219       N  0.42781140  0.88467836  0.53455573     0.66810
H1220       H  0.46659763  0.93841360  0.54537355     0.15710
H1221       H  0.37551650  0.92474643  0.49149419     0.15420
N1222       N  0.41605233  0.97483691  0.52333857     0.74510
O1223       O  0.42132427  0.86597796  0.50059217    -0.38940
O1224       O  0.44326511  0.88635257  0.57146103    -0.38880
O1225       O  0.39360909  0.97495670  0.51356407    -0.39590
O1226       O  0.42967292  0.98684797  0.56377320    -0.39650
C1227       C  0.01489436  0.57484263  0.43268235    -0.11930
C1228       C  0.01560764  0.56081701  0.47528285     0.05070
C1229       C  0.01940086  0.57326081  0.52413545    -0.07220
C1230       C  0.02284093  0.59980296  0.52872785    -0.07970
C1231       C  0.02069265  0.61330251  0.48654146    -0.02520
C1232       C  0.01641351  0.60064657  0.43779826     0.04300
N1233       N  0.51170525  0.61254930  0.39411128     0.66810
H1234       H  0.51130546  0.56471695  0.39580921     0.15710
H1235       H  0.02603185  0.60959707  0.56596109     0.15420
N1236       N  0.01947779  0.55933515  0.56935976     0.74510
O1237       O  0.52006200  0.60944482  0.35144521    -0.38940
O1238       O  0.49573827  0.62258522  0.39646957    -0.38880
O1239       O  0.03407698  0.57361437  0.60754526    -0.39590
O1240       O  0.00290091  0.53323319  0.57344702    -0.39650
C1241       C  0.07761042  0.57324937  0.49327368    -0.11930
C1242       C  0.06321591  0.55199439  0.45587483     0.05070
C1243       C  0.07802176  0.55339008  0.41103711    -0.07220
C1244       C  0.10650849  0.57533695  0.40590847    -0.07970
C1245       C  0.12038325  0.59692737  0.44270831    -0.02520
C1246       C  0.10531616  0.59634318  0.48642342     0.04300
N1247       N  0.11683889  0.61943547  0.52281934     0.66810
H1248       H  0.06724900  0.57195078  0.52844312     0.15710
H1249       H  0.11760222  0.57645795  0.37145855     0.15420
N1250       N  0.06445655  0.53336333  0.36972063     0.74510
O1251       O  0.10035133  0.62472868  0.54715110    -0.38940
O1252       O  0.14326411  0.63444382  0.53150935    -0.38880
O1253       O  0.03844552  0.52319993  0.35940689    -0.39590
O1254       O  0.07909935  0.52802940  0.34003078    -0.39650
C1255       C  0.45085747  0.52983965  0.49081490    -0.11930
C1256       C  0.45822222  0.51482601  0.45736967     0.05070
C1257       C  0.44550823  0.50792615  0.40871051    -0.07220
C1258       C  0.42420021  0.51375754  0.39651616    -0.07970
C1259       C  0.41375639  0.52530140  0.43227139    -0.02520
C1260       C  0.42771530  0.53329523  0.48079402     0.04300
N1261       N  0.41700979  0.54157869  0.52278142     0.66810
H1262       H  0.46107138  0.53613068  0.52771251     0.15710
H1263       H  0.41634531  0.50955960  0.35794909     0.15420
N1264       N  0.45535160  0.99686864  0.36986620     0.74510
O1265       O  0.39190720  0.52536440  0.53725310    -0.38940
O1266       O  0.43395159  0.56233880  0.55079728    -0.38880
O1267       O  0.48139054  0.00993908  0.35923584    -0.39590
O1268       O  0.43767752  0.47770982  0.33981613    -0.39650
C1269       C  0.05847623  0.98300729  0.43270057    -0.11930
C1270       C  0.05200002  0.49574942  0.47261535     0.05070
C1271       C  0.06664660  0.50128212  0.51927531    -0.07220
C1272       C  0.08690290  0.49354989  0.52502386    -0.07970
C1273       C  0.09477889  0.48221665  0.48456449    -0.02520
C1274       C  0.08016891  0.97688463  0.43773049     0.04300
N1275       N  0.08837692  0.96743046  0.39404060     0.66810
H1276       H  0.04691595  0.97832011  0.39710137     0.15710
H1277       H  0.09702534  0.49689685  0.56181788     0.15420
N1278       N  0.06080802  0.51403742  0.56168846     0.74510
O1279       O  0.06961500  0.94723594  0.36709606    -0.38940
O1280       O  0.11268153  0.98321513  0.37609548    -0.38880
O1281       O  0.03552722  0.50587677  0.57361198    -0.39590
O1282       O  0.08087828  0.53131947  0.59072721    -0.39650
C1283       C  0.47995413  0.90621081  0.41658035    -0.11930
C1284       C  0.49294728  0.89780407  0.45168796     0.05070
C1285       C  0.00671346  0.91456336  0.49538018    -0.07220
C1286       C  0.00714722  0.93961481  0.50251270    -0.07970
C1287       C  0.49526026  0.94889987  0.46633804    -0.02520
C1288       C  0.48129423  0.93183570  0.42318488     0.04300
N1289       N  0.46980241  0.94088774  0.38464768     0.66810
H1290       H  0.46954221  0.89318659  0.38312848     0.15710
H1291       H  0.01722349  0.95237547  0.53626859     0.15420
N1292       N  0.02077940  0.90692834  0.53202774     0.74510
O1293       O  0.48603392  0.96331114  0.36231767    -0.38940
O1294       O  0.44524622  0.92416791  0.36645155    -0.38880
O1295       O  0.03474544  0.89581690  0.51808343    -0.39590
O1296       O  0.02240660  0.91459736  0.57778920    -0.39650
C1297       C  0.21193196  0.65736422  0.81303728    -0.11930
C1298       C  0.23722803  0.66589340  0.84053950     0.05070
C1299       C  0.23890251  0.67464007  0.89195409    -0.07220
C1300       C  0.21522855  0.67383163  0.91431604    -0.07970
C1301       C  0.19018944  0.66534473  0.88638113    -0.02520
C1302       C  0.18876076  0.65747733  0.83481630     0.04300
N1303       N  0.16427716  0.65028343  0.80363522     0.66810
H1304       H  0.21022707  0.65091745  0.77363683     0.15710
H1305       H  0.21647343  0.68019972  0.95368223     0.15420
N1306       N  0.26460648  0.68547919  0.92148419     0.74510
O1307       O  0.15693984  0.63238866  0.76778099    -0.38940
O1308       O  0.15222273  0.66431054  0.80753686    -0.38880
O1309       O  0.28757298  0.70577383  0.90568215    -0.39590
O1310       O  0.26342548  0.67842340  0.96678133    -0.39650
C1311       C  0.36354611  0.79734459  0.92949286    -0.11930
C1312       C  0.36635650  0.79129441  0.97951759     0.05070
C1313       C  0.36589617  0.76637068  0.99013901    -0.07220
C1314       C  0.36283381  0.74818255  0.94961768    -0.07970
C1315       C  0.35974017  0.75416004  0.89943240    -0.02520
C1316       C  0.35945041  0.77879657  0.88952772     0.04300
N1317       N  0.35267885  0.78420050  0.84019995     0.66810
H1318       H  0.36275792  0.81597272  0.92186994     0.15710
H1319       H  0.36304728  0.72927010  0.95719946     0.15420
N1320       N  0.36863080  0.75932594  0.04107295     0.74510
O1321       O  0.33102027  0.76529643  0.81618776    -0.38940
O1322       O  0.36512620  0.80898580  0.82465894    -0.38880
O1323       O  0.38205187  0.77830339  0.07461390    -0.39590
O1324       O  0.35971883  0.73415148  0.05173649    -0.39650
C1325       C  0.43202272  0.65382527  0.57265443    -0.11930
C1326       C  0.43937590  0.67207083  0.61458953     0.05070
C1327       C  0.46768170  0.68738853  0.63305522    -0.07220
C1328       C  0.48823478  0.68423599  0.60863558    -0.07970
C1329       C  0.48082249  0.66605657  0.56646266    -0.02520
C1330       C  0.45258866  0.65102713  0.54743328     0.04300
N1331       N  0.44464701  0.63392000  0.50176969     0.66810
H1332       H  0.41012752  0.64182777  0.55929886     0.15710
H1333       H  0.01020422  0.69638963  0.62242289     0.15420
N1334       N  0.47604565  0.70693352  0.67500249     0.74510
O1335       O  0.41989762  0.61268983  0.49675749    -0.38940
O1336       O  0.46033423  0.64234250  0.46360159    -0.38880
O1337       O  0.47236631  0.69813903  0.71945894    -0.39590
O1338       O  0.49245025  0.73279966  0.66790075    -0.39650
C1339       C  0.46771115  0.79680071  0.54490988    -0.11930
C1340       C  0.45645255  0.80061126  0.50032972     0.05070
C1341       C  0.42650985  0.78601987  0.49285552    -0.07220
C1342       C  0.40893530  0.76929679  0.53179828    -0.07970
C1343       C  0.42006037  0.76608286  0.57727038    -0.02520
C1344       C  0.45012314  0.77917619  0.58322958     0.04300
N1345       N  0.46339363  0.77440119  0.62602150     0.66810
H1346       H  0.49062547  0.80821893  0.55004623     0.15710
H1347       H  0.38603001  0.75805376  0.52641895     0.15420
N1348       N  0.41356340  0.78748175  0.44620367     0.74510
O1349       O  0.49009507  0.78561493  0.62837286    -0.38940
O1350       O  0.44885424  0.75793143  0.66029390    -0.38880
O1351       O  0.38684358  0.77553400  0.44193066    -0.39590
O1352       O  0.42820704  0.79792774  0.40734501    -0.39650
C1353       C  0.43036450  0.74611137  0.88583962    -0.11930
C1354       C  0.43928746  0.75714704  0.83768187     0.05070
C1355       C  0.45475615  0.78657196  0.83248653    -0.07220
C1356       C  0.46025738  0.80403200  0.87510577    -0.07970
C1357       C  0.45162371  0.79303552  0.92329086    -0.02520
C1358       C  0.43662328  0.76354999  0.92894967     0.04300
N1359       N  0.42737818  0.75094394  0.97753639     0.66810
H1360       H  0.41684553  0.72362549  0.88960092     0.15710
H1361       H  0.47295163  0.82657632  0.87099038     0.15420
N1362       N  0.46519329  0.79900690  0.78436043     0.74510
O1363       O  0.42303890  0.76361470  0.01320570    -0.38940
O1364       O  0.42222670  0.72638538  0.98433429    -0.38880
O1365       O  0.46746978  0.82213163  0.77438783    -0.39590
O1366       O  0.47498497  0.78847990  0.75388536    -0.39650
C1367       C  0.38622855  0.64154991  0.96414538    -0.11930
C1368       C  0.39916348  0.65702822  0.92068659     0.05070
C1369       C  0.42854445  0.66621282  0.91382098    -0.07220
C1370       C  0.44299918  0.65846106  0.94679993    -0.07970
C1371       C  0.42995392  0.64192052  0.98821567    -0.02520
C1372       C  0.40121367  0.63396625  0.99846746     0.04300
N1373       N  0.38685320  0.61835582  0.04263875     0.66810
H1374       H  0.36401388  0.63429014  0.97011048     0.15710
H1375       H  0.46495748  0.66510683  0.93909280     0.15420
N1376       N  0.44429118  0.68274994  0.87201248     0.74510
O1377       O  0.36238427  0.61365152  0.05311696    -0.38940
O1378       O  0.39873784  0.61013350  0.07265947    -0.38880
O1379       O  0.45408827  0.70881475  0.87372860    -0.39590
O1380       O  0.45405264  0.67282145  0.84016063    -0.39650
C1381       C  0.30600791  0.78984681  0.59896374    -0.11930
C1382       C  0.33213111  0.80524168  0.57375779     0.05070
C1383       C  0.35322601  0.79854080  0.58226795    -0.07220
C1384       C  0.34862189  0.77819432  0.61690955    -0.07970
C1385       C  0.32291003  0.76292206  0.64276663    -0.02520
C1386       C  0.30099704  0.76861260  0.63341308     0.04300
N1387       N  0.27433221  0.75413243  0.65932216     0.66810
H1388       H  0.28971070  0.79490283  0.59264779     0.15710
H1389       H  0.36513078  0.77328218  0.62185272     0.15420
N1390       N  0.37876152  0.81081954  0.55347530     0.74510
O1391       O  0.25262258  0.75330527  0.64121582    -0.38940
O1392       O  0.27285120  0.74429053  0.70242011    -0.38880
O1393       O  0.40229347  0.81806808  0.57465348    -0.39590
O1394       O  0.37726351  0.81105989  0.50594690    -0.39650
C1395       C  0.26123848  0.68535596  0.53425860    -0.11930
C1396       C  0.27797241  0.67360899  0.52259666     0.05070
C1397       C  0.27097542  0.65641205  0.47812599    -0.07220
C1398       C  0.24553672  0.64879631  0.45104882    -0.07970
C1399       C  0.22723243  0.65797470  0.46721222    -0.02520
C1400       C  0.23552072  0.67691852  0.50914035     0.04300
N1401       N  0.21728795  0.68607074  0.52978389     0.66810
H1402       H  0.26688613  0.69936728  0.56709955     0.15710
H1403       H  0.23977682  0.63543304  0.41735471     0.15420
N1404       N  0.28904300  0.64660770  0.45991782     0.74510
O1405       O  0.21688752  0.68974952  0.57694630    -0.38940
O1406       O  0.20332153  0.69269027  0.50149238    -0.38880
O1407       O  0.31567687  0.66182397  0.46563839    -0.39590
O1408       O  0.27901499  0.62512907  0.43094534    -0.39650
C1409       C  0.32452271  0.55010970  0.80775303    -0.11930
C1410       C  0.35210148  0.57081562  0.79299755     0.05070
C1411       C  0.37523876  0.56856570  0.80920406    -0.07220
C1412       C  0.37023114  0.54657886  0.84090385    -0.07970
C1413       C  0.34236322  0.52488999  0.85362888    -0.02520
C1414       C  0.31927093  0.52690613  0.83549469     0.04300
N1415       N  0.29022088  0.50512006  0.84208968     0.66810
H1416       H  0.30627374  0.55132307  0.79614099     0.15710
H1417       H  0.38879203  0.54690774  0.85540205     0.15420
N1418       N  0.40344130  0.58660109  0.79095763     0.74510
O1419       O  0.27224316  0.51131004  0.85671832    -0.38940
O1420       O  0.28151348  0.98063055  0.82601132    -0.38880
O1421       O  0.41647475  0.61266237  0.80056607    -0.39590
O1422       O  0.41702960  0.57593280  0.77267033    -0.39650
C1423       C  0.25617751  0.56983243  0.90476363    -0.11930
C1424       C  0.25133894  0.57144237  0.85331282     0.05070
C1425       C  0.22314383  0.55778795  0.83416074    -0.07220
C1426       C  0.20049385  0.54307478  0.86691508    -0.07970
C1427       C  0.20527430  0.54198654  0.91866466    -0.02520
C1428       C  0.23359025  0.55588579  0.93794814     0.04300
N1429       N  0.23982279  0.55749753  0.99117055     0.66810
H1430       H  0.27777741  0.58121901  0.91983327     0.15710
H1431       H  0.17895592  0.53223092  0.85162315     0.15420
N1432       N  0.21700834  0.56027263  0.78258353     0.74510
O1433       O  0.26182862  0.55786141  0.00626908    -0.38940
O1434       O  0.22518456  0.56164566  0.02289215    -0.38880
O1435       O  0.22454251  0.54985877  0.74761331    -0.39590
O1436       O  0.19970670  0.56806147  0.77266175    -0.39650
C1437       C  0.21438102  0.54085185  0.54997238    -0.11930
C1438       C  0.18729652  0.52343443  0.56890934     0.05070
C1439       C  0.17897034  0.53225827  0.61309538    -0.07220
C1440       C  0.19823906  0.55826091  0.63704110    -0.07970
C1441       C  0.22549708  0.57554680  0.61821388    -0.02520
C1442       C  0.23341311  0.56680008  0.57355439     0.04300
N1443       N  0.26066190  0.58424419  0.55122590     0.66810
H1444       H  0.22023292  0.53482367  0.51495781     0.15710
H1445       H  0.19251385  0.56429915  0.67210877     0.15420
N1446       N  0.15130077  0.51492141  0.63449083     0.74510
O1447       O  0.27209557  0.57329788  0.52598787    -0.38940
O1448       O  0.27061254  0.61023609  0.54848844    -0.38880
O1449       O  0.13900286  0.48849203  0.63155570    -0.39590
O1450       O  0.13997990  0.52596461  0.65978882    -0.39650
C1451       C  0.32954307  0.56327547  0.55633091    -0.11930
C1452       C  0.33569823  0.59043305  0.54553258     0.05070
C1453       C  0.34741070  0.60152465  0.49754437    -0.07220
C1454       C  0.35291283  0.58567295  0.46313766    -0.07970
C1455       C  0.34768550  0.55924767  0.47493944    -0.02520
C1456       C  0.33531807  0.54741113  0.52165270     0.04300
N1457       N  0.32873038  0.51969581  0.53477257     0.66810
H1458       H  0.32042160  0.55439055  0.59231400     0.15710
H1459       H  0.36235023  0.59455081  0.42723877     0.15420
N1460       N  0.35464330  0.62900916  0.48276172     0.74510
O1461       O  0.32681765  0.51318647  0.58055705    -0.38940
O1462       O  0.32236094  0.50085124  0.50109524    -0.38880
O1463       O  0.37725068  0.65012608  0.50003578    -0.39590
O1464       O  0.34359281  0.63142879  0.44284094    -0.39650
O1465       O  0.84051451  0.13284213  0.57476292    -0.86160
O1466       O  0.78979780  0.11712806  0.84701927    -0.86320
O1467       O  0.83187217  0.08699151  0.73597456    -0.87990
O1468       O  0.76510907  0.08920607  0.66790647    -0.86750
O1469       O  0.75125324  0.12150765  0.66079157    -0.86340
O1470       O  0.87544569  0.11963011  0.76930011    -0.87710
O1471       O  0.77869193  0.08682276  0.77853368    -0.86190
O1472       O  0.82106965  0.09640593  0.62869685    -0.85770
Zr1473     Zr  0.81042670  0.11253694  0.70940633     2.84310
O1474       O  0.79379954  0.13837593  0.75258358    -1.07750
O1475       O  0.85582906  0.14296699  0.68044900    -1.08480
C1476       C  0.83172929  0.10740371  0.58548353     1.06950
C1477       C  0.77510777  0.09293540  0.82428010     1.06900
C1478       C  0.85426658  0.09400102  0.76253526     1.09880
C1479       C  0.74818573  0.09689177  0.65218718     1.07660
H1480       H  0.83796117  0.12420351  0.80519087     0.33220
O1481       O  0.83883722  0.13693863  0.78025421    -1.28700
H1482       H  0.79790518  0.13346615  0.62486908     0.32890
O1483       O  0.80889739  0.14346201  0.65445593    -1.30380
O1484       O  0.84212612  0.20785983  0.86952633    -0.86150
O1485       O  0.88557071  0.21955509  0.59171617    -0.87650
O1486       O  0.89376475  0.16132940  0.83508525    -0.86230
O1487       O  0.76076285  0.16676064  0.76485255    -0.86280
O1488       O  0.78194445  0.16977642  0.60838485    -0.85990
O1489       O  0.91696801  0.17187901  0.68837458    -0.85790
O1490       O  0.91509240  0.24767691  0.76082502    -0.86160
O1491       O  0.84380505  0.24868919  0.70249042    -0.85630
O1492       O  0.91801486  0.21220552  0.79550298    -0.86690
O1493       O  0.79983273  0.21505117  0.67105284    -0.85850
O1494       O  0.85860088  0.15998286  0.88301462    -0.86250
O1495       O  0.89763042  0.17379531  0.61248416    -0.85970
O1496       O  0.81957454  0.17517177  0.56231355    -0.85620
O1497       O  0.78023735  0.16429392  0.84007877    -0.86030
O1498       O  0.86590216  0.24388074  0.81455475    -0.86320
O1499       O  0.89641053  0.25116741  0.65755882    -0.87660
Zr1500     Zr  0.82416358  0.16410067  0.82218244     2.83100
Zr1501     Zr  0.85367791  0.17405708  0.62436340     2.83500
Zr1502     Zr  0.88429227  0.16726568  0.75110692     2.84090
Zr1503     Zr  0.79071297  0.16815935  0.69569671     2.83360
Zr1504     Zr  0.86711657  0.22482326  0.73102846     2.84220
O1505       O  0.83609275  0.19923144  0.66464684    -1.08230
O1506       O  0.86837477  0.19439073  0.78924889    -1.07730
C1507       C  0.85588144  0.23402985  0.85846458     1.06920
C1508       C  0.89937915  0.24445349  0.61152398     1.09540
C1509       C  0.88233475  0.15974475  0.87770484     1.07100
C1510       C  0.76107419  0.16566341  0.81367760     1.07460
C1511       C  0.79482389  0.17289906  0.56650543     1.07040
C1512       C  0.91672428  0.17314775  0.64016855     1.06590
C1513       C  0.92464821  0.23814563  0.79387723     1.07020
C1514       C  0.82110589  0.24079506  0.67590048     1.06530
H1515       H  0.90353600  0.21090807  0.68215609     0.33210
O1516       O  0.88432029  0.19858976  0.69300936    -1.29330
H1517       H  0.81502792  0.20565633  0.77951480     0.33230
O1518       O  0.82174303  0.19447438  0.76344388    -1.30720
C1519       C  0.97601357  0.48159715  0.48163822     0.02620
C1520       C  0.99948196  0.47742482  0.47315923     0.02620
C1521       C  0.52767128  0.00039393  0.46760300     0.02620
C1522       C  0.53321000  0.02792074  0.46514928     0.02620
C1523       C  0.50998432  0.03209232  0.46886377     0.02620
C1524       C  0.98134040  0.00914352  0.47147824     0.02620
C1525       C  0.50353630  0.16585531  0.53939154     0.03460
C1526       C  0.50342143  0.14099272  0.53124555    -0.12690
C1527       C  0.52159944  0.13987116  0.49560748     0.00960
C1528       C  0.53951902  0.16371278  0.46804050    -0.11210
C1529       C  0.53878738  0.18824028  0.47607254     0.03450
C1530       C  0.52210448  0.18974897  0.51358873    -0.10630
H1531       H  0.48823893  0.12226938  0.55071229     0.09050
H1532       H  0.55332363  0.16299103  0.43968618     0.06580
H1533       H  0.52199481  0.20899682  0.52003582     0.06430
C1534       C  0.64779677  0.45588900  0.48613094     0.03460
C1535       C  0.62251580  0.45645043  0.47632442    -0.12690
C1536       C  0.62031283  0.97967659  0.49249028     0.00960
C1537       C  0.64301501  0.00157488  0.51968051    -0.11210
C1538       C  0.66610066  0.99991973  0.53580637     0.03450
C1539       C  0.66918241  0.97761828  0.51762936    -0.10630
H1540       H  0.60490795  0.43920346  0.45550776     0.09050
H1541       H  0.64246539  0.02024592  0.53002335     0.06580
H1542       H  0.68841179  0.97766388  0.52681673     0.06430
C1543       C  0.85652222  0.04511770  0.43834161     0.03460
C1544       C  0.88253375  0.04657577  0.44483459    -0.12690
C1545       C  0.88853627  0.02817251  0.41798210     0.00960
C1546       C  0.86913741  0.01145218  0.37843446    -0.11210
C1547       C  0.84431538  0.01231306  0.36782459     0.03450
C1548       C  0.83793548  0.02873767  0.39915606    -0.10630
H1549       H  0.89736469  0.06161891  0.47223983     0.09050
H1550       H  0.87237262  0.49677270  0.35656989     0.06580
H1551       H  0.81773445  0.02760578  0.39498844     0.06430
C1552       C  0.51435334  0.34715884  0.40691851     0.03460
C1553       C  0.99649085  0.32364502  0.43640828    -0.12690
C1554       C  0.97594430  0.32412641  0.46789618     0.00960
C1555       C  0.97429564  0.34828951  0.47093474    -0.11210
C1556       C  0.99213642  0.37147237  0.44247231     0.03450
C1557       C  0.51153207  0.37069440  0.40975970    -0.10630
H1558       H  0.99855769  0.30534424  0.43491486     0.09050
H1559       H  0.95960864  0.34935649  0.49679446     0.06580
H1560       H  0.52571902  0.38919242  0.38875023     0.06430
C1561       C  0.70062098  0.14956269  0.43837629     0.03460
C1562       C  0.70099480  0.16885879  0.40501033    -0.12690
C1563       C  0.67556724  0.16607473  0.38735358     0.00960
C1564       C  0.64949882  0.14225112  0.39978441    -0.11210
C1565       C  0.64862567  0.12163571  0.43043054     0.03450
C1566       C  0.67436950  0.12549005  0.45023160    -0.10630
H1567       H  0.72114517  0.18752090  0.39662182     0.09050
H1568       H  0.62970804  0.14017765  0.38711640     0.06580
H1569       H  0.67386163  0.11059553  0.47641118     0.06430
C1570       C  0.83759320  0.32823100  0.53868357     0.03460
C1571       C  0.86354727  0.35447541  0.54169693    -0.12690
C1572       C  0.87055035  0.37491130  0.50480032     0.00960
C1573       C  0.85049565  0.36921012  0.46646260    -0.11210
C1574       C  0.82392917  0.34445744  0.46531391     0.03450
C1575       C  0.81762035  0.32367793  0.50060151    -0.10630
H1576       H  0.87816108  0.35880335  0.57286783     0.09050
H1577       H  0.85505956  0.38460552  0.43799765     0.06580
H1578       H  0.79721231  0.30420451  0.49851700     0.06430
O1579       O  0.63325780  0.29463445  0.35890185    -0.86160
O1580       O  0.61352276  0.32769421  0.09212790    -0.86320
O1581       O  0.59208713  0.32783298  0.26468737    -0.87990
O1582       O  0.58432431  0.25531981  0.19765547    -0.86750
O1583       O  0.61462709  0.24124959  0.17134154    -0.86340
O1584       O  0.62826811  0.37390208  0.27376127    -0.87710
O1585       O  0.58402013  0.30577848  0.15849265    -0.86190
O1586       O  0.59508596  0.27971270  0.30563554    -0.85770
Zr1587     Zr  0.61270490  0.30378297  0.22555556     2.84310
O1588       O  0.63442965  0.29743836  0.15515241    -1.07750
O1589       O  0.64579245  0.33818334  0.28176377    -1.08480
C1590       C  0.60677355  0.27944874  0.34800429     1.06950
C1591       C  0.58931905  0.31667369  0.11457815     1.06900
C1592       C  0.60231380  0.35327405  0.28018419     1.09880
C1593       C  0.58922088  0.23687654  0.17823430     1.07660
H1594       H  0.62804834  0.35435523  0.17631573     0.33220
O1595       O  0.63989754  0.34711478  0.18609573    -1.28700
H1596       H  0.63075991  0.26997190  0.26877531     0.32890
O1597       O  0.64191435  0.28800205  0.25348895    -1.30380
O1598       O  0.70491562  0.36879620  0.06872645    -0.86150
O1599       O  0.72111226  0.33687521  0.34343284    -0.87650
O1600       O  0.67263284  0.40968076  0.17641318    -0.86230
O1601       O  0.65537031  0.26882671  0.09458308    -0.86280
O1602       O  0.66909548  0.25577058  0.24959885    -0.85990
O1603       O  0.68392381  0.39635669  0.32834190    -0.85790
O1604       O  0.75387543  0.40577102  0.23196373    -0.86160
O1605       O  0.74488357  0.33132852  0.16683569    -0.85630
O1606       O  0.72382935  0.42098064  0.25592925    -0.86690
O1607       O  0.70887406  0.28531052  0.15482388    -0.85850
O1608       O  0.66639024  0.38552463  0.10126649    -0.86250
O1609       O  0.66981318  0.35648916  0.37181433    -0.85970
O1610       O  0.67485212  0.27909995  0.32555626    -0.85620
O1611       O  0.65339036  0.30324494  0.05185187    -0.86030
O1612       O  0.74264919  0.38075140  0.12236530    -0.86320
O1613       O  0.75047572  0.35157513  0.27514321    -0.87660
Zr1614     Zr  0.66185454  0.34033454  0.11586171     2.83100
Zr1615     Zr  0.67459099  0.32257096  0.31174074     2.83500
Zr1616     Zr  0.67423506  0.38087095  0.24200383     2.84090
Zr1617     Zr  0.66418465  0.28195148  0.18306460     2.83360
Zr1618     Zr  0.72522660  0.35739695  0.20303381     2.84220
O1619       O  0.69672467  0.31512055  0.24227105    -1.08230
O1620       O  0.69631573  0.37352287  0.17323516    -1.07730
C1621       C  0.73176291  0.38202447  0.07972047     1.06920
C1622       C  0.74487976  0.34443396  0.32194509     1.09540
C1623       C  0.67003692  0.40696378  0.12785091     1.07100
C1624       C  0.65172230  0.27914852  0.05431275     1.07460
C1625       C  0.67280835  0.25856076  0.29801414     1.07040
C1626       C  0.67433385  0.38192592  0.36811584     1.06590
C1627       C  0.74884612  0.42399272  0.25221292     1.07020
C1628       C  0.73508526  0.30582528  0.15153110     1.06530
H1629       H  0.71652413  0.37725244  0.29722752     0.33210
O1630       O  0.70301919  0.36458884  0.27203990    -1.29330
H1631       H  0.70097182  0.32297676  0.11492167     0.33230
O1632       O  0.69163166  0.32495533  0.14406637    -1.30720
C1633       C  0.94749229  0.13305908  0.01718275     0.03460
C1634       C  0.96937007  0.15220824  0.05101250    -0.12690
C1635       C  0.98856973  0.14562731  0.07377723     0.00960
C1636       C  0.98566270  0.11963169  0.06086340    -0.11210
C1637       C  0.96569443  0.10124857  0.02439730     0.03450
C1638       C  0.94644248  0.10792561  0.00304556    -0.10630
H1639       H  0.97201592  0.17266321  0.05787054     0.09050
H1640       H  0.49988845  0.11395412  0.07768829     0.06580
H1641       H  0.93135574  0.09409648  0.97411695     0.06430
C1642       C  0.99067551  0.01616036  0.95638614     0.02620
C1643       C  0.96739433  0.48831365  0.95261930     0.02620
C1644       C  0.97083589  0.46530031  0.95986380     0.02620
C1645       C  0.49857265  0.46962716  0.95913890     0.02620
C1646       C  0.52261566  0.49740242  0.95599415     0.02620
C1647       C  0.51874467  0.02095446  0.95739005     0.02620
C1648       C  0.65843564  0.48676010  0.01123692     0.03460
C1649       C  0.68180227  0.50518623  0.98245738    -0.12690
C1650       C  0.68060615  0.02419126  0.95062607     0.00960
C1651       C  0.65542977  0.02475699  0.94745989    -0.11210
C1652       C  0.63182689  0.50650752  0.97614110     0.03450
C1653       C  0.63322997  0.48728759  0.00752518    -0.10630
H1654       H  0.70113466  0.50453608  0.98434280     0.09050
H1655       H  0.65412877  0.03931830  0.92279943     0.06580
H1656       H  0.61460369  0.47251641  0.02811279     0.06430
C1657       C  0.50157237  0.33127359  0.03105538     0.03460
C1658       C  0.98236161  0.30952584  0.99887417    -0.12690
C1659       C  0.96455063  0.31305771  0.96662592     0.00960
C1660       C  0.96508515  0.33853872  0.96829106    -0.11210
C1661       C  0.98581111  0.36171188  0.99785284     0.03450
C1662       C  0.50384741  0.35758499  0.02958855    -0.10630
H1663       H  0.98326173  0.29056472  0.99542342     0.08690
H1664       H  0.95095036  0.34087150  0.94304810     0.06580
H1665       H  0.52091572  0.37515850  0.05068647     0.06430
C1666       C  0.63922951  0.18621635  0.94082140     0.03460
C1667       C  0.66488914  0.18746357  0.92756350    -0.12690
C1668       C  0.66501430  0.16329463  0.91144542     0.00960
C1669       C  0.64024098  0.13696596  0.91508333    -0.11210
C1670       C  0.61486867  0.13451661  0.93135564     0.03450
C1671       C  0.61422019  0.15904315  0.94216174    -0.10630
H1672       H  0.68500125  0.20706741  0.92873569     0.09050
H1673       H  0.64072056  0.11827861  0.90470837     0.06580
H1674       H  0.59378852  0.15621924  0.95101230     0.06430
C1675       C  0.83821709  0.50030159  0.88356616     0.03460
C1676       C  0.81487806  0.48474374  0.91596932    -0.12690
C1677       C  0.81153371  0.46095407  0.94020214     0.00960
C1678       C  0.83224292  0.45382696  0.93512001    -0.11210
C1679       C  0.85730420  0.47131388  0.91008722     0.03450
C1680       C  0.85900565  0.49282743  0.88111987    -0.10630
H1681       H  0.79972771  0.49114216  0.92359834     0.09050
H1682       H  0.82952284  0.43555983  0.95377828     0.06580
H1683       H  0.87753171  0.00468800  0.85843711     0.06430
C1684       C  0.86684048  0.31057788  0.01896877     0.03460
C1685       C  0.84242158  0.30257084  0.04725877    -0.12690
C1686       C  0.83866731  0.32300505  0.07161507     0.00960
C1687       C  0.85970881  0.35163807  0.06748462    -0.11210
C1688       C  0.88476163  0.35954682  0.04091300     0.03450
C1689       C  0.88841838  0.33881049  0.01801893    -0.10630
H1690       H  0.82513812  0.28083481  0.04603748     0.09050
H1691       H  0.85589710  0.36765525  0.08241428     0.06580
H1692       H  0.90669062  0.34493771  0.99429755     0.06430
C1693       C  0.91958941  0.47535838  0.97906868    -0.11930
C1694       C  0.93901538  0.48304953  0.94013502     0.05070
C1695       C  0.93077214  0.48406166  0.88983714    -0.07220
C1696       C  0.90276656  0.47711945  0.88052076    -0.07970
C1697       C  0.88344435  0.47055777  0.91989793    -0.02520
C1698       C  0.89192610  0.46878052  0.96959458     0.04300
N1699       N  0.87344042  0.46163902  0.01165086     0.66810
H1700       H  0.92603789  0.47442870  0.01736953     0.15710
H1701       H  0.89608004  0.97750949  0.84218770     0.15420
N1702       N  0.94999375  0.99183702  0.84787211     0.74510
O1703       O  0.87795542  0.48065793  0.04374406    -0.38940
O1704       O  0.85948692  0.43636010  0.02458903    -0.38880
O1705       O  0.97164466  0.98954869  0.84962811    -0.39590
O1706       O  0.94465613  0.99999161  0.80749329    -0.39650
C1707       C  0.55728964  0.05800329  0.90688374    -0.11930
C1708       C  0.54382776  0.05029496  0.95364437     0.05070
C1709       C  0.55332103  0.07097980  0.99326826    -0.07220
C1710       C  0.57570261  0.09861655  0.98412935    -0.07970
C1711       C  0.58909582  0.10604544  0.93708362    -0.02520
C1712       C  0.57935524  0.08541318  0.89777392     0.04300
N1713       N  0.59071113  0.09213965  0.84778748     0.66810
H1714       H  0.54936857  0.04289608  0.87587296     0.15710
H1715       H  0.58353505  0.11429750  0.01458380     0.15420
N1716       N  0.54120871  0.06448230  0.04287578     0.74510
O1717       O  0.59228137  0.07406244  0.82065648    -0.38940
O1718       O  0.59578653  0.11471070  0.82832466    -0.38880
O1719       O  0.53047357  0.04006731  0.05956696    -0.39590
O1720       O  0.54287275  0.08367946  0.07170371    -0.39650
C1721       C  0.58995897  0.49653133  0.92514367    -0.11930
C1722       C  0.60509270  0.50643968  0.97093653     0.05070
C1723       C  0.59398949  0.01490454  0.01091299    -0.07220
C1724       C  0.56717030  0.01192545  0.00440192    -0.07970
C1725       C  0.55180112  0.50184282  0.95857293    -0.02520
C1726       C  0.56364717  0.49439765  0.91810413     0.04300
N1727       N  0.54965051  0.48479470  0.86968109     0.66810
H1728       H  0.59882224  0.49040826  0.89446403     0.15710
H1729       H  0.55810527  0.01739884  0.03546011     0.15420
N1730       N  0.60968011  0.02687805  0.05764696     0.74510
O1731       O  0.53956912  0.49783238  0.84834272    -0.38940
O1732       O  0.55142623  0.46621554  0.84459695    -0.38880
O1733       O  0.63652701  0.04139247  0.05809040    -0.39590
O1734       O  0.59675670  0.02576553  0.09767859    -0.39650
C1735       C  0.50766925  0.43926598  0.01345887    -0.11930
C1736       C  0.50150980  0.44456505  0.96489119     0.05070
C1737       C  0.99182247  0.42305190  0.92677256    -0.07220
C1738       C  0.98843128  0.39716420  0.93901794    -0.07970
C1739       C  0.99153213  0.39068879  0.98868769    -0.02520
C1740       C  0.50140280  0.41230871  0.02661948     0.04300
N1741       N  0.50308071  0.40700143  0.07899476     0.66810
H1742       H  0.51429161  0.45541057  0.04288435     0.15710
H1743       H  0.98283146  0.38160114  0.90896056     0.15420
N1744       N  0.98439386  0.42630663  0.87606728     0.74510
O1745       O  0.52230588  0.42584546  0.10744824    -0.38940
O1746       O  0.48329587  0.38508754  0.09840250    -0.38880
O1747       O  0.99118059  0.45003701  0.86002690    -0.39590
O1748       O  0.97066465  0.40515164  0.84666530    -0.39650
C1749       C  0.94834141  0.43361841  0.03172843    -0.11930
C1750       C  0.94659841  0.43848330  0.98020475     0.05070
C1751       C  0.92171153  0.41892091  0.95215741    -0.07220
C1752       C  0.90087776  0.39462690  0.97553556    -0.07970
C1753       C  0.90402935  0.38875543  0.02544453    -0.02520
C1754       C  0.92782436  0.40876993  0.05471394     0.04300
N1755       N  0.93205246  0.40415156  0.10665350     0.66810
H1756       H  0.96635407  0.44938856  0.05407348     0.15710
H1757       H  0.88254612  0.37907312  0.95342925     0.15420
N1758       N  0.91678052  0.42278023  0.90045675     0.74510
O1759       O  0.95586335  0.41964117  0.12855071    -0.38940
O1760       O  0.91179014  0.38583499  0.13203201    -0.38880
O1761       O  0.93685541  0.43323656  0.86972310    -0.39590
O1762       O  0.89168394  0.41286129  0.88389321    -0.39650
C1763       C  0.97421125  0.07564836  0.95455537    -0.11930
C1764       C  0.96781206  0.07688295  0.00555254     0.05070
C1765       C  0.96817217  0.05764854  0.03902794    -0.07220
C1766       C  0.47641881  0.03901052  0.02129950    -0.07970
C1767       C  0.98446686  0.03873261  0.97088835    -0.02520
C1768       C  0.98228692  0.05673334  0.93639511     0.04300
N1769       N  0.98755936  0.05610314  0.88325304     0.66810
H1770       H  0.97404416  0.09045998  0.92899098     0.15710
H1771       H  0.47610686  0.02398955  0.04695051     0.15420
N1772       N  0.45997138  0.05655930  0.09105748     0.74510
O1773       O  0.97715624  0.06522109  0.85184885    -0.38940
O1774       O  0.00361277  0.04780793  0.86732254    -0.38880
O1775       O  0.94117613  0.06204913  0.10317803    -0.39590
O1776       O  0.46965318  0.04764915  0.12427054    -0.39650
C1777       C  0.61633262  0.21049354  0.98549003    -0.11930
C1778       C  0.63891427  0.21264508  0.95649768     0.05070
C1779       C  0.66149650  0.24042582  0.94615060    -0.07220
C1780       C  0.66460275  0.26339730  0.97553597    -0.07970
C1781       C  0.64360628  0.26008103  0.00932966    -0.02520
C1782       C  0.61766021  0.23404189  0.00918195     0.04300
N1783       N  0.59262587  0.23096422  0.03314778     0.66810
H1784       H  0.59761883  0.19042434  0.99201722     0.15710
H1785       H  0.68363389  0.28389931  0.97249046     0.15420
N1786       N  0.68038221  0.24595829  0.90473774     0.74510
O1787       O  0.56855800  0.20953146  0.02296729    -0.38940
O1788       O  0.59348017  0.25123824  0.05715978    -0.38880
O1789       O  0.67078974  0.23253317  0.86322150    -0.39590
O1790       O  0.70556658  0.26672368  0.90702041    -0.39650
C1791       C  0.79347253  0.32155496  0.06275261    -0.11930
C1792       C  0.81035087  0.31479976  0.09159676     0.05070
C1793       C  0.79927951  0.29948040  0.13630486    -0.07220
C1794       C  0.77218796  0.29320653  0.15248244    -0.07970
C1795       C  0.75617931  0.30165816  0.12501269    -0.02520
C1796       C  0.76648684  0.31497570  0.07853548     0.04300
N1797       N  0.75026911  0.32303146  0.04814255     0.66810
H1798       H  0.80155959  0.33223131  0.02754089     0.15710
H1799       H  0.76449232  0.28364081  0.18864317     0.15420
N1800       N  0.81547524  0.29139615  0.16689309     0.74510
O1801       O  0.76269534  0.34358958  0.01931925    -0.38940
O1802       O  0.72349023  0.30788370  0.04594867    -0.38880
O1803       O  0.84232913  0.30524976  0.16694687    -0.39590
O1804       O  0.80294449  0.27145220  0.19695384    -0.39650
C1805       C  0.55166544  0.34753815  0.04796490    -0.11930
C1806       C  0.52319137  0.32774435  0.05688637     0.05070
C1807       C  0.51611260  0.30334018  0.08394922    -0.07220
C1808       C  0.53800005  0.29908947  0.09947360    -0.07970
C1809       C  0.56658664  0.31925328  0.09081012    -0.02520
C1810       C  0.57325180  0.34401055  0.06612754     0.04300
N1811       N  0.60141043  0.36782268  0.06759079     0.66810
H1812       H  0.55737227  0.36638522  0.02772084     0.15710
H1813       H  0.53282343  0.28057525  0.12034921     0.15420
N1814       N  0.48719437  0.28328856  0.09704577     0.74510
O1815       O  0.61303239  0.37977409  0.02718981    -0.38940
O1816       O  0.61064080  0.38111258  0.10916508    -0.38880
O1817       O  0.47953306  0.25796320  0.10359290    -0.39590
O1818       O  0.47005366  0.29131149  0.10734253    -0.39650
C1819       C  0.53978107  0.16802876  0.10438739    -0.11930
C1820       C  0.51328647  0.16649299  0.10735686     0.05070
C1821       C  0.51136283  0.18532260  0.14156452    -0.07220
C1822       C  0.53619981  0.20704550  0.16573126    -0.07970
C1823       C  0.56313623  0.20986469  0.15985162    -0.02520
C1824       C  0.56418451  0.18848646  0.13181386     0.04300
N1825       N  0.58945350  0.18688368  0.13103633     0.66810
H1826       H  0.54193193  0.15350380  0.07975821     0.15710
H1827       H  0.53423897  0.22197459  0.18961344     0.15420
N1828       N  0.98441085  0.18226933  0.15359133     0.74510
O1829       O  0.60199313  0.18841691  0.17209033    -0.38940
O1830       O  0.59574710  0.17824494  0.09159625    -0.38880
O1831       O  0.96298976  0.15822125  0.16064685    -0.39590
O1832       O  0.48281770  0.20367568  0.16378333    -0.39650
C1833       C  0.76393625  0.42025784  0.95718998    -0.11930
C1834       C  0.78853576  0.44442958  0.97594518     0.05070
C1835       C  0.79429260  0.44796944  0.02861710    -0.07220
C1836       C  0.77587385  0.42654765  0.06064616    -0.07970
C1837       C  0.75158945  0.40190028  0.04206862    -0.02520
C1838       C  0.74535806  0.39889005  0.98939691     0.04300
N1839       N  0.72120127  0.37400756  0.96752576     0.66810
H1840       H  0.76018724  0.41716096  0.91669953     0.15710
H1841       H  0.78013503  0.42953079  0.10098484     0.15420
N1842       N  0.81887364  0.47279931  0.05017646     0.74510
O1843       O  0.70832152  0.37577153  0.92955313    -0.38940
O1844       O  0.71515542  0.35002900  0.98135222    -0.38880
O1845       O  0.83064718  0.49562719  0.02717979    -0.39590
O1846       O  0.82737033  0.47271921  0.09450932    -0.39650
C1847       C  0.65578524  0.44250019  0.12119276    -0.11930
C1848       C  0.66956458  0.42940502  0.10013053     0.05070
C1849       C  0.67990122  0.43566325  0.05062206    -0.07220
C1850       C  0.67422939  0.45290458  0.02191997    -0.07970
C1851       C  0.66080653  0.46640609  0.04280791    -0.02520
C1852       C  0.65174837  0.46136982  0.09348969     0.04300
N1853       N  0.63927298  0.47564245  0.11787898     0.66810
H1854       H  0.64797682  0.43790157  0.15939762     0.15710
H1855       H  0.68144098  0.45667694  0.98330133     0.15420
N1856       N  0.69808987  0.42652199  0.03062528     0.74510
O1857       O  0.61907903  0.46273679  0.14808491    -0.38940
O1858       O  0.65076755  0.50188652  0.11467921    -0.38880
O1859       O  0.71822447  0.42908281  0.05782306    -0.39590
O1860       O  0.69762518  0.42112877  0.98393531    -0.39650
C1861       C  0.76935958  0.35679331  0.40487342    -0.11930
C1862       C  0.76705033  0.34564416  0.35571490     0.05070
C1863       C  0.78269484  0.33265534  0.34360806    -0.07220
C1864       C  0.79994889  0.33103765  0.38109968    -0.07970
C1865       C  0.80217497  0.34239328  0.42993559    -0.02520
C1866       C  0.78698207  0.35580621  0.44186286     0.04300
N1867       N  0.78951800  0.36898552  0.49072108     0.66810
H1868       H  0.75683290  0.36602529  0.41501902     0.15710
H1869       H  0.81228164  0.32146704  0.37176340     0.15420
N1870       N  0.78041769  0.31990433  0.29475173     0.74510
O1871       O  0.78631031  0.38980750  0.49478872    -0.38940
O1872       O  0.79266905  0.35867889  0.53037481    -0.38880
O1873       O  0.78643007  0.33438896  0.25576391    -0.39590
O1874       O  0.77787215  0.29606418  0.29139255    -0.39650
C1875       C  0.65780269  0.20839020  0.30045834    -0.11930
C1876       C  0.67389000  0.23552539  0.32278117     0.05070
C1877       C  0.69205088  0.23989568  0.36445207    -0.07220
C1878       C  0.69258383  0.21695418  0.38370492    -0.07970
C1879       C  0.67615057  0.18980768  0.36179626    -0.02520
C1880       C  0.65929475  0.18570302  0.31838411     0.04300
N1881       N  0.64472018  0.15920215  0.29077246     0.66810
H1882       H  0.64451248  0.20496186  0.26752747     0.15710
H1883       H  0.70579486  0.22042347  0.41674025     0.15420
N1884       N  0.71140994  0.26736276  0.38582906     0.74510
O1885       O  0.62254945  0.15228984  0.26501910    -0.38940
O1886       O  0.65590691  0.14438261  0.28660534    -0.38880
O1887       O  0.70196902  0.28099441  0.40834062    -0.39590
O1888       O  0.73716407  0.27488784  0.39276631    -0.39650
C1889       C  0.58359687  0.35368451  0.36378324    -0.11930
C1890       C  0.58262829  0.35741642  0.31170663     0.05070
C1891       C  0.55860356  0.35675178  0.29067037    -0.07220
C1892       C  0.53646323  0.35278013  0.32277315    -0.07970
C1893       C  0.53744631  0.34899255  0.37496881    -0.02520
C1894       C  0.56166260  0.34997505  0.39592116     0.04300
N1895       N  0.56456161  0.34746656  0.44931784     0.66810
H1896       H  0.60135117  0.35278870  0.37935191     0.15710
H1897       H  0.51816497  0.35262786  0.30701686     0.15420
N1898       N  0.55602692  0.35935451  0.23711027     0.74510
O1899       O  0.57863951  0.33693295  0.46492547    -0.38940
O1900       O  0.55610001  0.35867547  0.48108418    -0.38880
O1901       O  0.53189908  0.35042473  0.21679125    -0.39590
O1902       O  0.57786142  0.37197054  0.21026866    -0.39650
C1903       C  0.81468610  0.46389429  0.33510747    -0.11930
C1904       C  0.82212133  0.49177381  0.33128371     0.05070
C1905       C  0.80538409  0.49812732  0.29929176    -0.07220
C1906       C  0.78111302  0.47594917  0.27369288    -0.07970
C1907       C  0.77372493  0.44797611  0.27885352    -0.02520
C1908       C  0.79085839  0.44229968  0.31022472     0.04300
N1909       N  0.78214637  0.41431572  0.32304087     0.66810
H1910       H  0.82605378  0.45834684  0.36131128     0.15710
H1911       H  0.76830462  0.48051002  0.24915208     0.15420
N1912       N  0.81309324  0.02666328  0.29143600     0.74510
O1913       O  0.79964811  0.40614508  0.31961188    -0.38940
O1914       O  0.76077171  0.40136072  0.35068943    -0.38880
O1915       O  0.83887617  0.04621711  0.29241609    -0.39590
O1916       O  0.79432285  0.03209720  0.27880510    -0.39650
C1917       C  0.66696576  0.42227537  0.48388961    -0.11930
C1918       C  0.65275792  0.43428361  0.45992546     0.05070
C1919       C  0.64468918  0.42667179  0.40887481    -0.07220
C1920       C  0.64959176  0.40726556  0.38431016    -0.07970
C1921       C  0.66452653  0.39575208  0.40626431    -0.02520
C1922       C  0.67359897  0.40359002  0.45762019     0.04300
N1923       N  0.69064105  0.39453239  0.48287002     0.66810
H1924       H  0.67356529  0.42805849  0.52304263     0.15710
H1925       H  0.64404310  0.40355476  0.34483854     0.15420
N1926       N  0.63533796  0.44146020  0.37867089     0.74510
O1927       O  0.70362346  0.40647800  0.52378215    -0.38940
O1928       O  0.69245628  0.37427259  0.46539460    -0.38880
O1929       O  0.65190630  0.46744224  0.37294265    -0.39590
O1930       O  0.61407561  0.42795564  0.34924349    -0.39650
C1931       C  0.58467571  0.22687334  0.45137603    -0.11930
C1932       C  0.55533107  0.21253239  0.44531354     0.05070
C1933       C  0.54241356  0.22142774  0.41036661    -0.07220
C1934       C  0.55961023  0.24432959  0.38056141    -0.07970
C1935       C  0.58933632  0.25860412  0.38559067    -0.02520
C1936       C  0.60191443  0.24987197  0.42242108     0.04300
N1937       N  0.63205300  0.26267765  0.42920044     0.66810
H1938       H  0.59432945  0.21995530  0.47872356     0.15710
H1939       H  0.54964734  0.25056247  0.35263008     0.15420
N1940       N  0.51215094  0.20656255  0.40262403     0.74510
O1941       O  0.64608961  0.28637962  0.45154781    -0.38940
O1942       O  0.64295078  0.24761529  0.42495539    -0.38880
O1943       O  0.49640240  0.20665775  0.43708872    -0.39590
O1944       O  0.50182030  0.19825847  0.35861819    -0.39650
C1945       C  0.94765977  0.43492115  0.52666563    -0.11930
C1946       C  0.94774942  0.45711949  0.50203797     0.05070
C1947       C  0.92055450  0.45421283  0.49928012    -0.07220
C1948       C  0.89625181  0.42699861  0.49576785    -0.07970
C1949       C  0.89754853  0.40311994  0.50686893    -0.02520
C1950       C  0.92387215  0.40755030  0.52441910     0.04300
N1951       N  0.92782636  0.38464904  0.53443755     0.66810
H1952       H  0.96662592  0.43837731  0.54530543     0.15710
H1953       H  0.87556045  0.42476867  0.49151261     0.15420
N1954       N  0.91612381  0.47483978  0.52343086     0.74510
O1955       O  0.92132198  0.36595255  0.50045825    -0.38940
O1956       O  0.94328581  0.38630842  0.57132122    -0.38880
O1957       O  0.89367078  0.47496049  0.51376086    -0.39590
O1958       O  0.92979069  0.48685587  0.56382647    -0.39650
C1959       C  0.51487588  0.07485176  0.43272873    -0.11930
C1960       C  0.51558200  0.06082189  0.47532808     0.05070
C1961       C  0.51937803  0.07326437  0.52418237    -0.07220
C1962       C  0.52282865  0.09981062  0.52877758    -0.07970
C1963       C  0.52068834  0.11331486  0.48659173    -0.02520
C1964       C  0.51640520  0.10065990  0.43784737     0.04300
N1965       N  0.01158554  0.11251398  0.39396920     0.66810
H1966       H  0.01127047  0.06472579  0.39568021     0.15710
H1967       H  0.52602088  0.10960437  0.56601152     0.15420
N1968       N  0.51944573  0.05933292  0.56940492     0.74510
O1969       O  0.01993134  0.10941996  0.35128455    -0.38940
O1970       O  0.99555915  0.12248125  0.39635991    -0.38880
O1971       O  0.53404339  0.07360708  0.60759549    -0.39590
O1972       O  0.50286111  0.03323174  0.57348616    -0.39650
C1973       C  0.57758075  0.07323297  0.49333728    -0.11930
C1974       C  0.56318028  0.05198823  0.45592342     0.05070
C1975       C  0.57798176  0.05339324  0.41107475    -0.07220
C1976       C  0.60646803  0.07534212  0.40594465    -0.07970
C1977       C  0.62034982  0.09692319  0.44275982    -0.02520
C1978       C  0.60528914  0.09632614  0.48649445     0.04300
N1979       N  0.61682159  0.11940387  0.52292259     0.66810
H1980       H  0.56722100  0.07192585  0.52851321     0.15710
H1981       H  0.61755704  0.07647081  0.37148446     0.15420
N1982       N  0.56441341  0.03337293  0.36975015     0.74510
O1983       O  0.60034047  0.12468232  0.54731275    -0.38940
O1984       O  0.64324903  0.13441037  0.53159078    -0.38880
O1985       O  0.53840059  0.02320717  0.35945017    -0.39590
O1986       O  0.57905411  0.02804496  0.34004389    -0.39650
C1987       C  0.95088754  0.02983832  0.49079291    -0.11930
C1988       C  0.95825796  0.01483561  0.45733217     0.05070
C1989       C  0.94552950  0.00792339  0.40868342    -0.07220
C1990       C  0.92419427  0.01372256  0.39652411    -0.07970
C1991       C  0.91375681  0.02526277  0.43229653    -0.02520
C1992       C  0.92772720  0.03326862  0.48080492     0.04300
N1993       N  0.91702037  0.04154499  0.52280449     0.66810
H1994       H  0.96111786  0.03614481  0.52767524     0.15710
H1995       H  0.91631360  0.00951090  0.35797041     0.15420
N1996       N  0.95537560  0.49684847  0.36984067     0.74510
O1997       O  0.89189685  0.02535664  0.53720518    -0.38940
O1998       O  0.93396611  0.06227146  0.55088193    -0.38880
O1999       O  0.98141450  0.50992293  0.35920887    -0.39590
O2000       O  0.93772814  0.97774558  0.33973805    -0.39650
C2001       C  0.55841064  0.48295821  0.43274149    -0.11930
C2002       C  0.55194770  0.99573663  0.47264925     0.05070
C2003       C  0.56659640  0.00127017  0.51930764    -0.07220
C2004       C  0.58686565  0.99355372  0.52504256    -0.07970
C2005       C  0.59474472  0.98222922  0.48457498    -0.02520
C2006       C  0.58011051  0.47684454  0.43776284     0.04300
N2007       N  0.58834548  0.46742923  0.39405561     0.66810
H2008       H  0.54686436  0.47829289  0.39713124     0.15710
H2009       H  0.59699630  0.99690647  0.56183009     0.15420
N2010       N  0.56075018  0.01401431  0.56172918     0.74510
O2011       O  0.56959929  0.44726198  0.36704166    -0.38940
O2012       O  0.61266471  0.48322765  0.37617529    -0.38880
O2013       O  0.53546707  0.00584744  0.57364642    -0.39590
O2014       O  0.58081608  0.03129421  0.59077756    -0.39650
C2015       C  0.98003560  0.40621894  0.41659570    -0.11930
C2016       C  0.99302654  0.39782129  0.45172507     0.05070
C2017       C  0.50664039  0.41450951  0.49540066    -0.07220
C2018       C  0.50704911  0.43954664  0.50256431    -0.07970
C2019       C  0.99532297  0.44890919  0.46633242    -0.02520
C2020       C  0.98136844  0.43184107  0.42317749     0.04300
N2021       N  0.96987991  0.44088533  0.38461950     0.66810
H2022       H  0.96963103  0.39318942  0.38314566     0.15710
H2023       H  0.51711858  0.45230071  0.53632884     0.15420
N2024       N  0.52072264  0.40688208  0.53202791     0.74510
O2025       O  0.98610518  0.46332409  0.36232595    -0.38940
O2026       O  0.94533935  0.42415154  0.36637606    -0.38880
O2027       O  0.53471163  0.39579942  0.51805754    -0.39590
O2028       O  0.52234363  0.41453529  0.57779765    -0.39650
C2029       C  0.71192997  0.15736198  0.81304661    -0.11930
C2030       C  0.73722871  0.16589760  0.84054591     0.05070
C2031       C  0.73890297  0.17464713  0.89195893    -0.07220
C2032       C  0.71522647  0.17383338  0.91432282    -0.07970
C2033       C  0.69018411  0.16533886  0.88639214    -0.02520
C2034       C  0.68875576  0.15747006  0.83482771     0.04300
N2035       N  0.66426991  0.15027074  0.80364855     0.66810
H2036       H  0.71022545  0.15091404  0.77364693     0.15710
H2037       H  0.71647213  0.18020410  0.95368761     0.15420
N2038       N  0.76460962  0.18549564  0.92148504     0.74510
O2039       O  0.65693639  0.13237765  0.76779242    -0.38940
O2040       O  0.65220912  0.16429176  0.80755386    -0.38880
O2041       O  0.78757326  0.20578916  0.90567144    -0.39590
O2042       O  0.76343336  0.17844951  0.96678761    -0.39650
C2043       C  0.86352621  0.29734644  0.92949736    -0.11930
C2044       C  0.86636636  0.29131529  0.97951998     0.05070
C2045       C  0.86593629  0.26640711  0.99014809    -0.07220
C2046       C  0.86286764  0.24821184  0.94963406    -0.07970
C2047       C  0.85974426  0.25417084  0.89945156    -0.02520
C2048       C  0.85942998  0.27879382  0.88954149     0.04300
N2049       N  0.85263711  0.28417974  0.84021676     0.66810
H2050       H  0.86271869  0.31596378  0.92187030     0.15710
H2051       H  0.86310204  0.22931034  0.95721736     0.15420
N2052       N  0.86871035  0.25938699  0.04108016     0.74510
O2053       O  0.83097352  0.26526483  0.81623144    -0.38940
O2054       O  0.86507702  0.30895877  0.82464642    -0.38880
O2055       O  0.88213508  0.27837944  0.07459550    -0.39590
O2056       O  0.85983313  0.23422209  0.05176301    -0.39650
C2057       C  0.93213078  0.15385732  0.57289028    -0.11930
C2058       C  0.93945659  0.17215309  0.61473064     0.05070
C2059       C  0.96774641  0.18747315  0.63327167    -0.07220
C2060       C  0.98832173  0.18430075  0.60898214    -0.07970
C2061       C  0.98094405  0.16607571  0.56688227    -0.02520
C2062       C  0.95270608  0.15100329  0.54782902     0.04300
N2063       N  0.94474716  0.13376076  0.50233077     0.66810
H2064       H  0.91024085  0.14184246  0.55950566     0.15710
H2065       H  0.51021164  0.19638423  0.62247851     0.15420
N2066       N  0.97606719  0.20702701  0.67519194     0.74510
O2067       O  0.91999352  0.11252374  0.49746494    -0.38940
O2068       O  0.96040947  0.14205618  0.46412378    -0.38880
O2069       O  0.97245976  0.19825729  0.71966040    -0.39590
O2070       O  0.99235947  0.23290462  0.66804160    -0.39650
C2071       C  0.96775651  0.29683320  0.54500414    -0.11930
C2072       C  0.95651140  0.30063415  0.50039713     0.05070
C2073       C  0.92657020  0.28604218  0.49289237    -0.07220
C2074       C  0.90898445  0.26931699  0.53182162    -0.07970
C2075       C  0.92009578  0.26610812  0.57731447    -0.02520
C2076       C  0.95015706  0.27921206  0.58331637     0.04300
N2077       N  0.96341474  0.27445683  0.62615294     0.66810
H2078       H  0.99066957  0.30825231  0.55016007     0.15710
H2079       H  0.88608055  0.25807192  0.52641936     0.15420
N2080       N  0.91363502  0.28750773  0.44622831     0.74510
O2081       O  0.99013453  0.28586739  0.62874953    -0.38940
O2082       O  0.94885805  0.25777277  0.66015560    -0.38880
O2083       O  0.88691483  0.27554039  0.44192002    -0.39590
O2084       O  0.92829239  0.29798747  0.40739655    -0.39650
C2085       C  0.93041736  0.24615730  0.88579830    -0.11930
C2086       C  0.93934249  0.25717854  0.83763336     0.05070
C2087       C  0.95484096  0.28660158  0.83241332    -0.07220
C2088       C  0.96036514  0.30407517  0.87502240    -0.07970
C2089       C  0.95172369  0.29309005  0.92321291    -0.02520
C2090       C  0.93670444  0.26360721  0.92889479     0.04300
N2091       N  0.92746631  0.25101455  0.97749182     0.66810
H2092       H  0.91687109  0.22367544  0.88957750     0.15710
H2093       H  0.97307418  0.32661793  0.87089599     0.15420
N2094       N  0.96527463  0.29901864  0.78427212     0.74510
O2095       O  0.92311275  0.26368652  0.01313921    -0.38940
O2096       O  0.92233772  0.22646642  0.98432098    -0.38880
O2097       O  0.96760575  0.32216763  0.77430443    -0.39590
O2098       O  0.97499825  0.28844003  0.75376260    -0.39650
C2099       C  0.88624281  0.14156790  0.96416022    -0.11930
C2100       C  0.89918025  0.15704324  0.92069943     0.05070
C2101       C  0.92855889  0.16621472  0.91382870    -0.07220
C2102       C  0.94300408  0.15844825  0.94680092    -0.07970
C2103       C  0.92995719  0.14191593  0.98822370    -0.02520
C2104       C  0.90122223  0.13397760  0.99848257     0.04300
N2105       N  0.88686142  0.11837743  0.04266211     0.66810
H2106       H  0.86403055  0.13431730  0.97012966     0.15710
H2107       H  0.96496067  0.16508624  0.93909619     0.15420
N2108       N  0.94431958  0.18277240  0.87204657     0.74510
O2109       O  0.86241216  0.11371587  0.05317783    -0.38940
O2110       O  0.89872601  0.11011734  0.07264809    -0.38880
O2111       O  0.95403021  0.20882089  0.87373065    -0.39590
O2112       O  0.95419367  0.17290719  0.84029840    -0.39650
C2113       C  0.80602512  0.28986429  0.59895173    -0.11930
C2114       C  0.83214612  0.30525131  0.57373591     0.05070
C2115       C  0.85323623  0.29854358  0.58224204    -0.07220
C2116       C  0.84863069  0.27819884  0.61688891    -0.07970
C2117       C  0.82292121  0.26293464  0.64275589    -0.02520
C2118       C  0.80101218  0.26863151  0.63340635     0.04300
N2119       N  0.77434967  0.25415945  0.65932429     0.66810
H2120       H  0.78973148  0.29492560  0.59263957     0.15710
H2121       H  0.86513629  0.27328184  0.62182966     0.15420
N2122       N  0.87876771  0.31081329  0.55343978     0.74510
O2123       O  0.75264226  0.25333989  0.64122623    -0.38940
O2124       O  0.77286896  0.24431606  0.70242067    -0.38880
O2125       O  0.90230226  0.31806841  0.57461419    -0.39590
O2126       O  0.87726321  0.31103878  0.50591017    -0.39650
C2127       C  0.76121699  0.18534032  0.53428640    -0.11930
C2128       C  0.77795717  0.17360045  0.52261389     0.05070
C2129       C  0.77095664  0.15640302  0.47814134    -0.07220
C2130       C  0.74551428  0.14878563  0.45107006    -0.07970
C2131       C  0.72720767  0.15796017  0.46724152    -0.02520
C2132       C  0.73549686  0.17690056  0.50917333     0.04300
N2133       N  0.71726213  0.18604819  0.52982278     0.66810
H2134       H  0.76686313  0.19935025  0.56712907     0.15710
H2135       H  0.73975347  0.13542415  0.41737352     0.15420
N2136       N  0.78902423  0.14660061  0.45992268     0.74510
O2137       O  0.71684222  0.18969846  0.57698980    -0.38940
O2138       O  0.70331859  0.19269694  0.50153463    -0.38880
O2139       O  0.81565750  0.16181053  0.46566117    -0.39590
O2140       O  0.77899806  0.12513027  0.43092953    -0.39650
C2141       C  0.82449451  0.04997908  0.80741080    -0.11930
C2142       C  0.85210214  0.07082395  0.79302880     0.05070
C2143       C  0.87526430  0.06873310  0.80969829    -0.07220
C2144       C  0.87024615  0.04674950  0.84141123    -0.07970
C2145       C  0.84237032  0.02494992  0.85378104    -0.02520
C2146       C  0.81926132  0.02681144  0.83524688     0.04300
N2147       N  0.79022897  0.00490669  0.84155887     0.66810
H2148       H  0.80621880  0.05106396  0.79547398     0.15710
H2149       H  0.88879320  0.04715323  0.85621429     0.15420
N2150       N  0.90353944  0.08696796  0.79196463     0.74510
O2151       O  0.77208067  0.01095825  0.85574044    -0.38940
O2152       O  0.78160348  0.48053889  0.82580755    -0.38880
O2153       O  0.91644690  0.11296132  0.80220271    -0.39590
O2154       O  0.91731927  0.07649365  0.77373412    -0.39650
C2155       C  0.75618230  0.06983295  0.90472385    -0.11930
C2156       C  0.75134424  0.07144887  0.85327543     0.05070
C2157       C  0.72314911  0.05780071  0.83412445    -0.07220
C2158       C  0.70049882  0.04308357  0.86687711    -0.07970
C2159       C  0.70527906  0.04198879  0.91862501    -0.02520
C2160       C  0.73359516  0.05588655  0.93790786     0.04300
N2161       N  0.73982824  0.05749901  0.99113014     0.66810
H2162       H  0.77778220  0.08121704  0.91979373     0.15710
H2163       H  0.67896098  0.03224280  0.85158526     0.15420
N2164       N  0.71701424  0.06029648  0.78255234     0.74510
O2165       O  0.76183222  0.05785932  0.00622866    -0.38940
O2166       O  0.72519327  0.06165237  0.02285097    -0.38880
O2167       O  0.72455328  0.04989467  0.74756873    -0.39590
O2168       O  0.69971152  0.06808592  0.77264421    -0.39650
C2169       C  0.71438220  0.04087130  0.54995062    -0.11930
C2170       C  0.68728509  0.02347872  0.56885998     0.05070
C2171       C  0.67896324  0.03231890  0.61303176    -0.07220
C2172       C  0.69824736  0.05831267  0.63698904    -0.07970
C2173       C  0.72551801  0.07557179  0.61819099    -0.02520
C2174       C  0.73343109  0.06680938  0.57354713     0.04300
N2175       N  0.76069521  0.08422663  0.55125065     0.66810
H2176       H  0.72023477  0.03483134  0.51494983     0.15710
H2177       H  0.69252290  0.06436206  0.67204587     0.15420
N2178       N  0.65128416  0.01500500  0.63440779     0.74510
O2179       O  0.77212047  0.07325367  0.52606620    -0.38940
O2180       O  0.77067542  0.11022271  0.54848830    -0.38880
O2181       O  0.63897063  0.98857383  0.63150626    -0.39590
O2182       O  0.63997112  0.02607072  0.65966255    -0.39650
C2183       C  0.82962976  0.06334138  0.55629858    -0.11930
C2184       C  0.83578499  0.09050077  0.54552402     0.05070
C2185       C  0.84752629  0.10161485  0.49756108    -0.07220
C2186       C  0.85304222  0.08577674  0.46314533    -0.07970
C2187       C  0.84780207  0.05934342  0.47491628    -0.02520
C2188       C  0.83542013  0.04749156  0.52161436     0.04300
N2189       N  0.82883236  0.01977384  0.53471458     0.66810
H2190       H  0.82049228  0.05444175  0.59226499     0.15710
H2191       H  0.86249500  0.09466874  0.42726307     0.15420
N2192       N  0.85478029  0.12911183  0.48282046     0.74510
O2193       O  0.82693687  0.01326245  0.58049552    -0.38940
O2194       O  0.82244731  0.00093029  0.50102793    -0.38880
O2195       O  0.87738193  0.15021406  0.50015038    -0.39590
O2196       O  0.84375046  0.13156199  0.44290105    -0.39650
O2197       O  0.84045812  0.63282088  0.57468635    -0.86160
O2198       O  0.78977387  0.61711423  0.84699082    -0.86320
O2199       O  0.83183719  0.58696121  0.73593102    -0.87990
O2200       O  0.76507404  0.58917205  0.66788892    -0.86750
O2201       O  0.75120303  0.62146228  0.66077925    -0.86340
O2202       O  0.87540863  0.61961903  0.76925334    -0.87710
O2203       O  0.77866664  0.58680398  0.77851307    -0.86190
O2204       O  0.82105394  0.59640081  0.62865506    -0.85770
Zr2205     Zr  0.81039568  0.61251180  0.70937339     2.84310
O2206       O  0.79376411  0.63835193  0.75253279    -1.07750
O2207       O  0.85579740  0.64294485  0.68041150    -1.08480
C2208       C  0.83169733  0.60739038  0.58542784     1.06950
C2209       C  0.77508574  0.59291947  0.82425971     1.06900
C2210       C  0.85424109  0.59398612  0.76247445     1.09880
C2211       C  0.74814224  0.59684952  0.65218000     1.07660
H2212       H  0.83793068  0.62418736  0.80515330     0.33220
O2213       O  0.83880547  0.63692140  0.78021427    -1.28700
H2214       H  0.79785879  0.63340762  0.62479270     0.32890
O2215       O  0.80886738  0.64342981  0.65440946    -1.30380
O2216       O  0.84208965  0.70784218  0.86947558    -0.86150
O2217       O  0.88554910  0.71953227  0.59167474    -0.87650
O2218       O  0.89371658  0.66130369  0.83503741    -0.86230
O2219       O  0.76072347  0.66673154  0.76478862    -0.86280
O2220       O  0.78181397  0.66956734  0.60826605    -0.85990
O2221       O  0.91693306  0.67185540  0.68833695    -0.85790
O2222       O  0.91504187  0.74766453  0.76083595    -0.86160
O2223       O  0.84375386  0.74865893  0.70245955    -0.85630
O2224       O  0.91799276  0.71219049  0.79544271    -0.86690
O2225       O  0.79980132  0.71501614  0.67094982    -0.85850
O2226       O  0.85856518  0.65997214  0.88297603    -0.86250
O2227       O  0.89759738  0.67376546  0.61244130    -0.85970
O2228       O  0.81955219  0.67516685  0.56230540    -0.85620
O2229       O  0.78020611  0.66427934  0.84001760    -0.86030
O2230       O  0.86585504  0.74386029  0.81449626    -0.86320
O2231       O  0.89637708  0.75114541  0.65751078    -0.87660
Zr2232     Zr  0.82412877  0.66408318  0.82213022     2.83100
Zr2233     Zr  0.85364858  0.67403427  0.62432382     2.83500
Zr2234     Zr  0.88425777  0.66725161  0.75106210     2.84090
Zr2235     Zr  0.79066883  0.66812277  0.69562173     2.83360
Zr2236     Zr  0.86707502  0.72479994  0.73097346     2.84220
O2237       O  0.83605198  0.69920634  0.66458142    -1.08230
O2238       O  0.86833995  0.69437595  0.78920243    -1.07730
C2239       C  0.85583975  0.73401157  0.85841001     1.06920
C2240       C  0.89935371  0.74443159  0.61148064     1.09540
C2241       C  0.88229512  0.65972768  0.87766097     1.07100
C2242       C  0.76104117  0.66564468  0.81361623     1.07460
C2243       C  0.79474055  0.67276151  0.56641280     1.07040
C2244       C  0.91669073  0.67311994  0.64013036     1.06590
C2245       C  0.92461924  0.73812938  0.79384359     1.07020
C2246       C  0.82106540  0.74076305  0.67583735     1.06530
H2247       H  0.90350495  0.71089212  0.68211385     0.33210
O2248       O  0.88428798  0.69857340  0.69296421    -1.29330
H2249       H  0.81498310  0.70562529  0.77943863     0.33230
O2250       O  0.82169960  0.69444319  0.76337158    -1.30720
C2251       C  0.97603490  0.98159240  0.48165388     0.02620
C2252       C  0.99950889  0.97743056  0.47315634     0.02620
C2253       C  0.52766495  0.50034561  0.46762131     0.02620
C2254       C  0.53320032  0.52787022  0.46519081     0.02620
C2255       C  0.50997639  0.53204024  0.46893546     0.02620
C2256       C  0.98132951  0.50915103  0.47145623     0.02620
C2257       C  0.50338194  0.66577719  0.53893495     0.03460
C2258       C  0.50331663  0.64092551  0.53101792    -0.12690
C2259       C  0.52162106  0.63981736  0.49566041     0.00960
C2260       C  0.53967325  0.66367151  0.46824810    -0.11210
C2261       C  0.53888994  0.68818690  0.47602243     0.03450
C2262       C  0.52194628  0.68964136  0.51306863    -0.10630
H2263       H  0.48810257  0.62220899  0.55046491     0.09050
H2264       H  0.55358476  0.66294764  0.44012708     0.06580
H2265       H  0.52177353  0.70886411  0.51933247     0.06430
C2266       C  0.64780110  0.95593754  0.48612448     0.03460
C2267       C  0.62251884  0.95650031  0.47634154    -0.12690
C2268       C  0.62029848  0.47961715  0.49249683     0.00960
C2269       C  0.64299039  0.50150848  0.51971763    -0.11210
C2270       C  0.66607451  0.49985417  0.53585281     0.03450
C2271       C  0.66916542  0.47756040  0.51766616    -0.10630
H2272       H  0.60489827  0.93924485  0.45556405     0.09050
H2273       H  0.64243543  0.52017562  0.53007030     0.06580
H2274       H  0.68839488  0.47760746  0.52686099     0.06430
C2275       C  0.85644789  0.54503441  0.43836855     0.03460
C2276       C  0.88248413  0.54654113  0.44482906    -0.12690
C2277       C  0.88853541  0.52819131  0.41791352     0.00960
C2278       C  0.86916881  0.51150342  0.37830060    -0.11210
C2279       C  0.84430983  0.51230908  0.36773540     0.03450
C2280       C  0.83787157  0.52865339  0.39917227    -0.10630
H2281       H  0.89730113  0.56158869  0.47224367     0.09050
H2282       H  0.87228281  0.99665141  0.35680433     0.06580
H2283       H  0.81765036  0.52748261  0.39504359     0.06430
C2284       C  0.51429311  0.84717528  0.40682570     0.03460
C2285       C  0.99649085  0.82363594  0.43640278    -0.12690
C2286       C  0.97594364  0.82411901  0.46788723     0.00960
C2287       C  0.97429962  0.84828512  0.47092751    -0.11210
C2288       C  0.99214715  0.87146924  0.44247210     0.03450
C2289       C  0.51147384  0.87071200  0.40967958    -0.10630
H2290       H  0.99855415  0.80533310  0.43490711     0.09050
H2291       H  0.95961157  0.84935359  0.49678275     0.06580
H2292       H  0.52565683  0.88920901  0.38866458     0.06430
C2293       C  0.70057448  0.64954743  0.43826267     0.03460
C2294       C  0.70093361  0.66884295  0.40491802    -0.12690
C2295       C  0.67549876  0.66606092  0.38730625     0.00960
C2296       C  0.64943539  0.64224111  0.39978442    -0.11210
C2297       C  0.64857874  0.62162366  0.43040550     0.03450
C2298       C  0.67433162  0.62547521  0.45014418    -0.10630
H2299       H  0.72108297  0.68749646  0.39649221     0.09050
H2300       H  0.62963737  0.64016764  0.38716492     0.06580
H2301       H  0.67383864  0.61057611  0.47629538     0.06430
C2302       C  0.83758199  0.82824220  0.53871674     0.03460
C2303       C  0.86354058  0.85448238  0.54171539    -0.12690
C2304       C  0.87052933  0.87492807  0.50484260     0.00960
C2305       C  0.85045224  0.86924390  0.46655617    -0.11210
C2306       C  0.82388776  0.84448836  0.46541794     0.03450
C2307       C  0.81759866  0.82369703  0.50066598    -0.10630
H2308       H  0.87816849  0.85880044  0.57285704     0.09050
H2309       H  0.85500336  0.88464743  0.43811447     0.06580
H2310       H  0.79719347  0.80422031  0.49857880     0.06430
O2311       O  0.63320224  0.79473198  0.35893700    -0.86160
O2312       O  0.61353805  0.82769250  0.09205565    -0.86320
O2313       O  0.59203257  0.82781292  0.26464506    -0.87990
O2314       O  0.58430889  0.75531864  0.19758608    -0.86750
O2315       O  0.61463025  0.74126720  0.17129509    -0.86340
O2316       O  0.62820267  0.87388864  0.27371055    -0.87710
O2317       O  0.58401604  0.80577793  0.15839745    -0.86190
O2318       O  0.59502976  0.77962383  0.30556992    -0.85770
Zr2319     Zr  0.61266499  0.80377286  0.22552861     2.84310
O2320       O  0.63442535  0.79746020  0.15513947    -1.07750
O2321       O  0.64573620  0.83817476  0.28175220    -1.08480
C2322       C  0.60674013  0.77942903  0.34796260     1.06950
C2323       C  0.58932495  0.81666552  0.11447320     1.06900
C2324       C  0.60224957  0.85325563  0.28012377     1.09880
C2325       C  0.58921856  0.73688326  0.17817253     1.07660
H2326       H  0.62801899  0.85435217  0.17627771     0.33220
O2327       O  0.63986736  0.84711411  0.18608200    -1.28700
H2328       H  0.63073835  0.76997159  0.26875138     0.32890
O2329       O  0.64188555  0.78800496  0.25347312    -1.30380
O2330       O  0.70494770  0.86884541  0.06881071    -0.86150
O2331       O  0.72104735  0.83689793  0.34350722    -0.87650
O2332       O  0.67260609  0.90969323  0.17644089    -0.86230
O2333       O  0.65539324  0.76886271  0.09457635    -0.86280
O2334       O  0.66906925  0.75577411  0.24954191    -0.85990
O2335       O  0.68381969  0.89634671  0.32836006    -0.85790
O2336       O  0.75384823  0.90577409  0.23222943    -0.86160
O2337       O  0.74489785  0.83137051  0.16696905    -0.85630
O2338       O  0.72377207  0.92097038  0.25607345    -0.86690
O2339       O  0.70888882  0.78535800  0.15487879    -0.85850
O2340       O  0.66639136  0.88554935  0.10129160    -0.86250
O2341       O  0.66976821  0.85649000  0.37183740    -0.85970
O2342       O  0.67482820  0.77910401  0.32550375    -0.85620
O2343       O  0.65342530  0.80328701  0.05184784    -0.86030
O2344       O  0.74266931  0.88081363  0.12248953    -0.86320
O2345       O  0.75044002  0.85160400  0.27526422    -0.87660
Zr2346     Zr  0.66186505  0.84036259  0.11587750     2.83100
Zr2347     Zr  0.67453909  0.82257348  0.31174622     2.83500
Zr2348     Zr  0.67418455  0.88086903  0.24202024     2.84090
Zr2349     Zr  0.66418141  0.78198011  0.18305816     2.83360
Zr2350     Zr  0.72521522  0.85742788  0.20312175     2.84220
O2351       O  0.69669922  0.81513761  0.24230639    -1.08230
O2352       O  0.69630533  0.87354987  0.17328348    -1.07730
C2353       C  0.73179221  0.88208321  0.07983147     1.06920
C2354       C  0.74482829  0.84446762  0.32206384     1.09540
C2355       C  0.67002612  0.90698331  0.12787802     1.07100
C2356       C  0.65175413  0.77918877  0.05430494     1.07460
C2357       C  0.67278233  0.75856421  0.29795224     1.07040
C2358       C  0.67426336  0.88191765  0.36814343     1.06590
C2359       C  0.74879307  0.92398295  0.25245487     1.07020
C2360       C  0.73510414  0.80587177  0.15163920     1.06530
H2361       H  0.71645015  0.87724442  0.29730559     0.33210
O2362       O  0.70296506  0.86459307  0.27208447    -1.29330
H2363       H  0.70099904  0.82302492  0.11497136     0.33230
O2364       O  0.69164562  0.82499376  0.14410526    -1.30720
C2365       C  0.94748237  0.63308378  0.01716047     0.03460
C2366       C  0.96936134  0.65223396  0.05098833    -0.12690
C2367       C  0.98855733  0.64564996  0.07376015     0.00960
C2368       C  0.98564459  0.61965108  0.06085962    -0.11210
C2369       C  0.96567791  0.60126820  0.02439369     0.03450
C2370       C  0.94642998  0.60794762  0.00303152    -0.10630
H2371       H  0.97201019  0.67269051  0.05784162     0.09050
H2372       H  0.49990026  0.61395017  0.07761469     0.06580
H2373       H  0.93134347  0.59411741  0.97410383     0.06430
C2374       C  0.99067914  0.51618443  0.95645701     0.02620
C2375       C  0.96739007  0.98829092  0.95253288     0.02620
C2376       C  0.97082684  0.96527467  0.95977586     0.02620
C2377       C  0.49856112  0.96962034  0.95917390     0.02620
C2378       C  0.52260604  0.99739372  0.95601887     0.02620
C2379       C  0.51875038  0.52096091  0.95735215     0.02620
C2380       C  0.65843652  0.98676946  0.01121921     0.03460
C2381       C  0.68180316  0.00519440  0.98243890    -0.12690
C2382       C  0.68060611  0.52418673  0.95065318     0.00960
C2383       C  0.65543194  0.52475673  0.94749814    -0.11210
C2384       C  0.63182487  0.00650851  0.97610441     0.03450
C2385       C  0.63322937  0.98729272  0.00749674    -0.10630
H2386       H  0.70113730  0.00454787  0.98433370     0.09050
H2387       H  0.65413161  0.53932011  0.92284214     0.06580
H2388       H  0.61460322  0.97252263  0.02808588     0.06430
C2389       C  0.50155547  0.83124921  0.03099489     0.03460
C2390       C  0.98235507  0.80949879  0.99885944    -0.12690
C2391       C  0.96454326  0.81302718  0.96660620     0.00960
C2392       C  0.96507414  0.83850667  0.96826873    -0.11210
C2393       C  0.98579967  0.86168287  0.99782500     0.03450
C2394       C  0.50385354  0.85757026  0.02952373    -0.10630
H2395       H  0.98325767  0.79053891  0.99541403     0.08690
H2396       H  0.95093785  0.84083673  0.94302492     0.06580
H2397       H  0.52095082  0.87514641  0.05057068     0.06430
C2398       C  0.63923800  0.68623527  0.94083808     0.03460
C2399       C  0.66489260  0.68747440  0.92757063    -0.12690
C2400       C  0.66500859  0.66330257  0.91144072     0.00960
C2401       C  0.64023210  0.63697729  0.91508066    -0.11210
C2402       C  0.61486411  0.63453333  0.93136437     0.03450
C2403       C  0.61422426  0.65906396  0.94218490    -0.10630
H2404       H  0.68500823  0.70707434  0.92874270     0.09050
H2405       H  0.64070572  0.61828781  0.90469625     0.06580
H2406       H  0.59379602  0.65624475  0.95104831     0.06430
C2407       C  0.83824734  0.00036761  0.88372400     0.03460
C2408       C  0.81488426  0.98479021  0.91605535    -0.12690
C2409       C  0.81155280  0.96101195  0.94030872     0.00960
C2410       C  0.83226243  0.95388460  0.93521501    -0.11210
C2411       C  0.85733079  0.97137892  0.91020000     0.03450
C2412       C  0.85905880  0.99292964  0.88131440    -0.10630
H2413       H  0.79970176  0.99116500  0.92356667     0.09050
H2414       H  0.82953224  0.93560571  0.95384245     0.06580
H2415       H  0.87745074  0.50452673  0.85816807     0.06430
C2416       C  0.86679958  0.81056602  0.01891316     0.03460
C2417       C  0.84239354  0.80256915  0.04723806    -0.12690
C2418       C  0.83865833  0.82301207  0.07161263     0.00960
C2419       C  0.85970202  0.85164188  0.06745715    -0.11210
C2420       C  0.88474065  0.85953968  0.04084801     0.03450
C2421       C  0.88838132  0.83879608  0.01794182    -0.10630
H2422       H  0.82510628  0.78083494  0.04603746     0.09050
H2423       H  0.85590261  0.86766496  0.08240001     0.06580
H2424       H  0.90664415  0.84491555  0.99419919     0.06430
C2425       C  0.91959701  0.97533163  0.97903725    -0.11930
C2426       C  0.93901140  0.98303230  0.94008222     0.05070
C2427       C  0.93075723  0.98406053  0.88980041    -0.07220
C2428       C  0.90275742  0.97714858  0.88053132    -0.07970
C2429       C  0.88345069  0.97058090  0.91993698    -0.02520
C2430       C  0.89193430  0.96876018  0.96960226     0.04300
N2431       N  0.87344665  0.96156841  0.01166437     0.66810
H2432       H  0.92605236  0.97438289  0.01732243     0.15710
H2433       H  0.89609721  0.47744825  0.84215604     0.15420
N2434       N  0.95002523  0.49184876  0.84793415     0.74510
O2435       O  0.87793736  0.98055506  0.04381337    -0.38940
O2436       O  0.85950851  0.93627605  0.02452975    -0.38880
O2437       O  0.97167712  0.48956310  0.84971626    -0.39590
O2438       O  0.94470452  0.50001590  0.80755380    -0.39650
C2439       C  0.55729111  0.55802076  0.90686178    -0.11930
C2440       C  0.54382896  0.55030357  0.95362048     0.05070
C2441       C  0.55331476  0.57098400  0.99325159    -0.07220
C2442       C  0.57569281  0.59862461  0.98412349    -0.07970
C2443       C  0.58908773  0.60606210  0.93708021    -0.02520
C2444       C  0.57935085  0.58543472  0.89776172     0.04300
N2445       N  0.59070544  0.59217046  0.84777594     0.66810
H2446       H  0.54937496  0.54291710  0.87584496     0.15710
H2447       H  0.58352160  0.61430151  0.01458450     0.15420
N2448       N  0.54119809  0.56447878  0.04285538     0.74510
O2449       O  0.59228434  0.57410148  0.82063489    -0.38940
O2450       O  0.59577010  0.61474046  0.82832388    -0.38880
O2451       O  0.53046083  0.54006102  0.05953444    -0.39590
O2452       O  0.54285759  0.58367124  0.07169080    -0.39650
C2453       C  0.58994821  0.99652496  0.92512551    -0.11930
C2454       C  0.60509090  0.00644112  0.97090829     0.05070
C2455       C  0.59398609  0.51490217  0.01093425    -0.07220
C2456       C  0.56717026  0.51192906  0.00440533    -0.07970
C2457       C  0.55179172  0.00183174  0.95857973    -0.02520
C2458       C  0.56363220  0.99438472  0.91810334     0.04300
N2459       N  0.54962614  0.98477366  0.86968969     0.66810
H2460       H  0.59880694  0.99039987  0.89444110     0.15710
H2461       H  0.55810008  0.51740008  0.03545800     0.15420
N2462       N  0.60966787  0.52686908  0.05767835     0.74510
O2463       O  0.53954946  0.99781364  0.84834451    -0.38940
O2464       O  0.55139429  0.96618770  0.84461387    -0.38880
O2465       O  0.63651521  0.54137497  0.05814132    -0.39590
O2466       O  0.59673760  0.52576016  0.09769890    -0.39650
C2467       C  0.50766928  0.93925571  0.01347008    -0.11930
C2468       C  0.50149756  0.94455535  0.96491148     0.05070
C2469       C  0.99180798  0.92301608  0.92672102    -0.07220
C2470       C  0.98841717  0.89712956  0.93897651    -0.07970
C2471       C  0.99151736  0.89065817  0.98864998    -0.02520
C2472       C  0.50140920  0.91229876  0.02662071     0.04300
N2473       N  0.50310949  0.90699196  0.07898870     0.66810
H2474       H  0.51429989  0.95540050  0.04289748     0.15710
H2475       H  0.98281855  0.88156436  0.90892346     0.15420
N2476       N  0.98437826  0.92626535  0.87601346     0.74510
O2477       O  0.52233919  0.92584029  0.10742946    -0.38940
O2478       O  0.48333843  0.88507339  0.09840822    -0.38880
O2479       O  0.99117934  0.94999602  0.85995445    -0.39590
O2480       O  0.97063444  0.90510530  0.84662815    -0.39650
C2481       C  0.94832692  0.93360321  0.03164557    -0.11930
C2482       C  0.94658777  0.93846130  0.98011773     0.05070
C2483       C  0.92170103  0.91890084  0.95206999    -0.07220
C2484       C  0.90086295  0.89461168  0.97545411    -0.07970
C2485       C  0.90401139  0.88874501  0.02536936    -0.02520
C2486       C  0.92780646  0.90876020  0.05463782     0.04300
N2487       N  0.93203327  0.90414747  0.10658182     0.66810
H2488       H  0.96633941  0.94937488  0.05398900     0.15710
H2489       H  0.88253033  0.87905808  0.95334965     0.15420
N2490       N  0.91677425  0.92275993  0.90036603     0.74510
O2491       O  0.95584430  0.91963833  0.12847781    -0.38940
O2492       O  0.91177066  0.88583447  0.13196445    -0.38880
O2493       O  0.93685372  0.93322752  0.86964202    -0.39590
O2494       O  0.89167912  0.91283970  0.88379355    -0.39650
C2495       C  0.97421167  0.57566955  0.95457447    -0.11930
C2496       C  0.96779593  0.57690099  0.00556230     0.05070
C2497       C  0.96814918  0.55766760  0.03904902    -0.07220
C2498       C  0.47641458  0.53900365  0.02123370    -0.07970
C2499       C  0.98446666  0.53875637  0.97093910    -0.02520
C2500       C  0.98229489  0.55675698  0.93643335     0.04300
N2501       N  0.98758293  0.55612946  0.88329735     0.66810
H2502       H  0.97405172  0.59048221  0.92900354     0.15710
H2503       H  0.47610184  0.52398179  0.04688298     0.15420
N2504       N  0.45996941  0.55655344  0.09099360     0.74510
O2505       O  0.97719928  0.56526009  0.85187941    -0.38940
O2506       O  0.00362903  0.54782146  0.86738544    -0.38880
O2507       O  0.94113652  0.56206815  0.10316661    -0.39590
O2508       O  0.46964762  0.54763864  0.12420455    -0.39650
C2509       C  0.61635301  0.71052982  0.98549202    -0.11930
C2510       C  0.63893335  0.71267119  0.95650975     0.05070
C2511       C  0.66152265  0.74044915  0.94616190    -0.07220
C2512       C  0.66463420  0.76342614  0.97553753    -0.07970
C2513       C  0.64363755  0.76011975  0.00932180    -0.02520
C2514       C  0.61768717  0.73408395  0.00917457     0.04300
N2515       N  0.59265513  0.73101539  0.03313478     0.66810
H2516       H  0.59763392  0.69046410  0.99201515     0.15710
H2517       H  0.68366908  0.78392515  0.97248945     0.15420
N2518       N  0.68040985  0.74597440  0.90475454     0.74510
O2519       O  0.56858559  0.70958171  0.02296897    -0.38940
O2520       O  0.59351304  0.75129688  0.05712530    -0.38880
O2521       O  0.67081609  0.73255342  0.86323502    -0.39590
O2522       O  0.70559960  0.76672999  0.90704632    -0.39650
C2523       C  0.79345031  0.82153654  0.06278402    -0.11930
C2524       C  0.81035554  0.81482141  0.09164236     0.05070
C2525       C  0.79932743  0.79956544  0.13642505    -0.07220
C2526       C  0.77224644  0.79330582  0.15264182    -0.07970
C2527       C  0.75620586  0.80170824  0.12514007    -0.02520
C2528       C  0.76647639  0.81497314  0.07861031     0.04300
N2529       N  0.75023441  0.82299261  0.04820141     0.66810
H2530       H  0.80150766  0.83217064  0.02752705     0.15710
H2531       H  0.76457835  0.78378227  0.18884027     0.15420
N2532       N  0.81555447  0.79152863  0.16703903     0.74510
O2533       O  0.76263868  0.84352866  0.01932571    -0.38940
O2534       O  0.72345604  0.80783178  0.04604711    -0.38880
O2535       O  0.84240739  0.80537270  0.16699036    -0.39590
O2536       O  0.80305593  0.77163646  0.19721096    -0.39650
C2537       C  0.55165314  0.84744876  0.04763150    -0.11930
C2538       C  0.52318786  0.82771368  0.05674939     0.05070
C2539       C  0.51611576  0.80335204  0.08394082    -0.07220
C2540       C  0.53800199  0.79909750  0.09945592    -0.07970
C2541       C  0.56658578  0.81921704  0.09064416    -0.02520
C2542       C  0.57324451  0.84391791  0.06575677     0.04300
N2543       N  0.60141815  0.86770246  0.06699090     0.66810
H2544       H  0.55735053  0.86625885  0.02726934     0.15710
H2545       H  0.53282913  0.78062175  0.12045309     0.15420
N2546       N  0.48720864  0.78335251  0.09718674     0.74510
O2547       O  0.61302481  0.87946232  0.02644993    -0.38940
O2548       O  0.61068273  0.88117095  0.10839687    -0.38880
O2549       O  0.47952996  0.75803599  0.10389282    -0.39590
O2550       O  0.47010216  0.79142171  0.10745661    -0.39650
C2551       C  0.53979444  0.66802903  0.10432715    -0.11930
C2552       C  0.51329714  0.66648775  0.10729549     0.05070
C2553       C  0.51136680  0.68531188  0.14150539    -0.07220
C2554       C  0.53620043  0.70703857  0.16566995    -0.07970
C2555       C  0.56314066  0.70986683  0.15978748    -0.02520
C2556       C  0.56419586  0.68849113  0.13175421     0.04300
N2557       N  0.58946859  0.68689470  0.13098428     0.66810
H2558       H  0.54194809  0.65350511  0.07969981     0.15710
H2559       H  0.53423337  0.72196349  0.18955312     0.15420
N2560       N  0.98440840  0.68229819  0.15357156     0.74510
O2561       O  0.60201240  0.68844069  0.17204049    -0.38940
O2562       O  0.59576121  0.67824732  0.09155425    -0.38880
O2563       O  0.96298122  0.65825293  0.16061897    -0.39590
O2564       O  0.48280972  0.70365110  0.16372732    -0.39650
C2565       C  0.76396085  0.92032026  0.95730872    -0.11930
C2566       C  0.78856138  0.94449007  0.97605974     0.05070
C2567       C  0.79432727  0.94802784  0.02873073    -0.07220
C2568       C  0.77590954  0.92660641  0.06076270    -0.07970
C2569       C  0.75162270  0.90196065  0.04218643    -0.02520
C2570       C  0.74538901  0.89895104  0.98951577     0.04300
N2571       N  0.72123517  0.87406653  0.96764458     0.66810
H2572       H  0.76020757  0.91722456  0.91681907     0.15710
H2573       H  0.78017433  0.92958737  0.10110040     0.15420
N2574       N  0.81891629  0.97285367  0.05028491     0.74510
O2575       O  0.70834690  0.87582932  0.92968416    -0.38940
O2576       O  0.71520346  0.85008915  0.98145180    -0.38880
O2577       O  0.83070382  0.99567840  0.02727780    -0.39590
O2578       O  0.82741167  0.97277290  0.09461865    -0.39650
C2579       C  0.65577771  0.94252054  0.12120031    -0.11930
C2580       C  0.66956482  0.92942924  0.10015595     0.05070
C2581       C  0.67991277  0.93568939  0.05065542    -0.07220
C2582       C  0.67424076  0.95292502  0.02193776    -0.07970
C2583       C  0.66080935  0.96642229  0.04280621    -0.02520
C2584       C  0.65174298  0.96138733  0.09348395     0.04300
N2585       N  0.63925967  0.97565712  0.11785493     0.66810
H2586       H  0.64795923  0.93791896  0.15939867     0.15710
H2587       H  0.68145907  0.95669653  0.98332310     0.15420
N2588       N  0.69811561  0.92655895  0.03068654     0.74510
O2589       O  0.61905924  0.96274951  0.14804793    -0.38940
O2590       O  0.65075284  0.00190096  0.11465393    -0.38880
O2591       O  0.71824512  0.92912716  0.05790936    -0.39590
O2592       O  0.69767045  0.92117262  0.98399801    -0.39650
C2593       C  0.76911114  0.85659155  0.40517459    -0.11930
C2594       C  0.76698284  0.84567041  0.35587618     0.05070
C2595       C  0.78284095  0.83293112  0.34359212    -0.07220
C2596       C  0.80010110  0.83130261  0.38105094    -0.07970
C2597       C  0.80212538  0.84240515  0.43004060    -0.02520
C2598       C  0.78672599  0.85558148  0.44215488     0.04300
N2599       N  0.78905520  0.86851557  0.49118438     0.66810
H2600       H  0.75646065  0.86567508  0.41541826     0.15710
H2601       H  0.81259520  0.82192360  0.37157627     0.15420
N2602       N  0.78078728  0.82044398  0.29456541     0.74510
O2603       O  0.78563210  0.88919498  0.49554266    -0.38940
O2604       O  0.79221433  0.85810462  0.53068680    -0.38880
O2605       O  0.78698041  0.83514847  0.25583901    -0.39590
O2606       O  0.77832235  0.79664679  0.29087922    -0.39650
C2607       C  0.65768977  0.70837400  0.30047232    -0.11930
C2608       C  0.67385747  0.73552388  0.32269899     0.05070
C2609       C  0.69207739  0.73990185  0.36426661    -0.07220
C2610       C  0.69259418  0.71695703  0.38353759    -0.07970
C2611       C  0.67607970  0.68979126  0.36173460    -0.02520
C2612       C  0.65915681  0.68567525  0.31841035     0.04300
N2613       N  0.64448531  0.65914856  0.29089373     0.66810
H2614       H  0.64435151  0.70494139  0.26761147     0.15710
H2615       H  0.70585113  0.72044021  0.41651106     0.15420
N2616       N  0.71148037  0.76737762  0.38555184     0.74510
O2617       O  0.62225404  0.65223662  0.26533241    -0.38940
O2618       O  0.65563210  0.64429781  0.28660727    -0.38880
O2619       O  0.70208461  0.78099953  0.40824878    -0.39590
O2620       O  0.73725914  0.77492515  0.39220857    -0.39650
C2621       C  0.58351558  0.85365741  0.36370072    -0.11930
C2622       C  0.58255700  0.85739595  0.31162536     0.05070
C2623       C  0.55854405  0.85675107  0.29057747    -0.07220
C2624       C  0.53640838  0.85279822  0.32267847    -0.07970
C2625       C  0.53738443  0.84900677  0.37487512    -0.02520
C2626       C  0.56158788  0.84996742  0.39583215     0.04300
N2627       N  0.56448194  0.84745984  0.44923028     0.66810
H2628       H  0.60125883  0.85274436  0.37927559     0.15710
H2629       H  0.51811753  0.85265904  0.30692033     0.15420
N2630       N  0.55597081  0.85935065  0.23701236     0.74510
O2631       O  0.57853380  0.83690000  0.46484502    -0.38940
O2632       O  0.55605151  0.85870136  0.48098825    -0.38880
O2633       O  0.53185010  0.85047474  0.21670708    -0.39590
O2634       O  0.57780284  0.87190162  0.21014585    -0.39650
C2635       C  0.81449662  0.96383815  0.33567377    -0.11930
C2636       C  0.82208084  0.99174092  0.33149717     0.05070
C2637       C  0.80545557  0.99811771  0.29926232    -0.07220
C2638       C  0.78115800  0.97594199  0.27371873    -0.07970
C2639       C  0.77363480  0.94794873  0.27918723    -0.02520
C2640       C  0.79064441  0.94224618  0.31083998     0.04300
N2641       N  0.78185225  0.91426174  0.32380477     0.66810
H2642       H  0.82579552  0.95829640  0.36204995     0.15710
H2643       H  0.76844671  0.98051791  0.24895334     0.15420
N2644       N  0.81287285  0.52665540  0.29178532     0.74510
O2645       O  0.79933841  0.90606251  0.32062210    -0.38940
O2646       O  0.76043571  0.90136195  0.35138543    -0.38880
O2647       O  0.83862257  0.54628664  0.29268344    -0.39590
O2648       O  0.79399507  0.53200962  0.27952431    -0.39650
C2649       C  0.66698187  0.92233149  0.48389035    -0.11930
C2650       C  0.65274085  0.93431093  0.45994196     0.05070
C2651       C  0.64460875  0.92664137  0.40892617    -0.07220
C2652       C  0.64947475  0.90720257  0.38439283    -0.07970
C2653       C  0.66445866  0.89573375  0.40631640    -0.02520
C2654       C  0.67359486  0.90362835  0.45763160     0.04300
N2655       N  0.69067255  0.89460183  0.48284739     0.66810
H2656       H  0.67362572  0.92815281  0.52301719     0.15710
H2657       H  0.64386651  0.90343660  0.34494737     0.15420
N2658       N  0.63523917  0.94140799  0.37870340     0.74510
O2659       O  0.70368988  0.90657866  0.52371785    -0.38940
O2660       O  0.69247701  0.87433206  0.46539248    -0.38880
O2661       O  0.65181110  0.96738148  0.37288882    -0.39590
O2662       O  0.61395350  0.92788317  0.34933293    -0.39650
C2663       C  0.58486529  0.72642668  0.45046730    -0.11930
C2664       C  0.55550230  0.71245277  0.44524209     0.05070
C2665       C  0.54255974  0.72174079  0.41121542    -0.07220
C2666       C  0.55966169  0.74460578  0.38130338    -0.07970
C2667       C  0.58940029  0.75853124  0.38550891    -0.02520
C2668       C  0.60205748  0.74945048  0.42153519     0.04300
N2669       N  0.63219977  0.76194219  0.42751601     0.66810
H2670       H  0.59455942  0.71924274  0.47719789     0.15710
H2671       H  0.54961904  0.75107688  0.35397939     0.15420
N2672       N  0.51227811  0.70725695  0.40458771     0.74510
O2673       O  0.64656995  0.78550329  0.45021876    -0.38940
O2674       O  0.64277145  0.74662628  0.42249550    -0.38880
O2675       O  0.49737684  0.71013771  0.43753775    -0.39590
O2676       O  0.50124809  0.69646782  0.36191037    -0.39650
C2677       C  0.94767003  0.93488607  0.52660217    -0.11930
C2678       C  0.94776987  0.95710609  0.50203980     0.05070
C2679       C  0.92058481  0.95422710  0.49938461    -0.07220
C2680       C  0.89626472  0.92702281  0.49585508    -0.07970
C2681       C  0.89754230  0.90312524  0.50688437    -0.02520
C2682       C  0.92386688  0.90752571  0.52435672     0.04300
N2683       N  0.92780176  0.88460552  0.53430593     0.66810
H2684       H  0.96663120  0.93831911  0.54522080     0.15710
H2685       H  0.87557971  0.92481336  0.49165979     0.15420
N2686       N  0.91619586  0.97485579  0.52365100     0.74510
O2687       O  0.92127443  0.86592102  0.50029239    -0.38940
O2688       O  0.94326830  0.88623748  0.57115545    -0.38880
O2689       O  0.89373079  0.97498356  0.51414364    -0.39590
O2690       O  0.92993636  0.98687877  0.56398450    -0.39650
C2691       C  0.51489400  0.57480590  0.43281720    -0.11930
C2692       C  0.51557809  0.56076773  0.47541785     0.05070
C2693       C  0.51936372  0.57320281  0.52427847    -0.07220
C2694       C  0.52280031  0.59974372  0.52888317    -0.07970
C2695       C  0.52069318  0.61325698  0.48668752    -0.02520
C2696       C  0.51643568  0.60061742  0.43793647     0.04300
N2697       N  0.01162932  0.61254490  0.39398315     0.66810
H2698       H  0.01129400  0.56474630  0.39567947     0.15710
H2699       H  0.52596486  0.60952988  0.56611799     0.15420
N2700       N  0.51943233  0.55926816  0.56949421     0.74510
O2701       O  0.01998943  0.60946035  0.35130625    -0.38940
O2702       O  0.99560674  0.62251680  0.39636212    -0.38880
O2703       O  0.53402860  0.57353993  0.60768764    -0.39590
O2704       O  0.50285276  0.53316543  0.57356446    -0.39650
C2705       C  0.57757912  0.57316228  0.49340318    -0.11930
C2706       C  0.56316490  0.55194061  0.45595728     0.05070
C2707       C  0.57794383  0.55337275  0.41106468    -0.07220
C2708       C  0.60641790  0.57533915  0.40590157    -0.07970
C2709       C  0.62031448  0.59689927  0.44274850    -0.02520
C2710       C  0.60528531  0.59626045  0.48655800     0.04300
N2711       N  0.61685085  0.61929723  0.52307589     0.66810
H2712       H  0.56722941  0.57182926  0.52860559     0.15710
H2713       H  0.61748705  0.57649339  0.37140164     0.15420
N2714       N  0.56436560  0.53335953  0.36973365     0.74510
O2715       O  0.60039211  0.62453498  0.54764136    -0.38940
O2716       O  0.64328516  0.63429163  0.53168263    -0.38880
O2717       O  0.53834646  0.52318204  0.35947715    -0.39590
O2718       O  0.57900084  0.52804724  0.33998432    -0.39650
C2719       C  0.95088637  0.52985805  0.49074984    -0.11930
C2720       C  0.95825805  0.51485523  0.45729350     0.05070
C2721       C  0.94554420  0.50795717  0.40863371    -0.07220
C2722       C  0.92422113  0.51377068  0.39645735    -0.07970
C2723       C  0.91377125  0.52530136  0.43222690    -0.02520
C2724       C  0.92773305  0.53329737  0.48074650     0.04300
N2725       N  0.91702240  0.54156818  0.52274592     0.66810
H2726       H  0.96110582  0.53615351  0.52764231     0.15710
H2727       H  0.91635939  0.50957215  0.35789395     0.15420
N2728       N  0.95536356  0.99682313  0.36988008     0.74510
O2729       O  0.89191352  0.52535605  0.53719098    -0.38940
O2730       O  0.93396190  0.56231470  0.55079051    -0.38880
O2731       O  0.98139904  0.00991498  0.35922162    -0.39590
O2732       O  0.93774011  0.47777950  0.33968593    -0.39650
C2733       C  0.55840447  0.98298630  0.43275092    -0.11930
C2734       C  0.55194452  0.49569243  0.47265529     0.05070
C2735       C  0.56658151  0.50120617  0.51932174    -0.07220
C2736       C  0.58684178  0.49347854  0.52505378    -0.07970
C2737       C  0.59473111  0.48217031  0.48457495    -0.02520
C2738       C  0.58010800  0.97687887  0.43777450     0.04300
N2739       N  0.58833144  0.96744680  0.39407517     0.66810
H2740       H  0.54684827  0.97830417  0.39714810     0.15710
H2741       H  0.59696013  0.49681275  0.56184847     0.15420
N2742       N  0.56073127  0.51393980  0.56175548     0.74510
O2743       O  0.56957899  0.94726159  0.36710126    -0.38940
O2744       O  0.61263860  0.98324654  0.37615169    -0.38880
O2745       O  0.53544730  0.50577461  0.57366341    -0.39590
O2746       O  0.58079381  0.53120727  0.59082260    -0.39650
C2747       C  0.98005974  0.90622352  0.41658873    -0.11930
C2748       C  0.99304462  0.89782178  0.45172262     0.05070
C2749       C  0.50661312  0.91453488  0.49535832    -0.07220
C2750       C  0.50704197  0.93958285  0.50252299    -0.07970
C2751       C  0.99536040  0.94891990  0.46631455    -0.02520
C2752       C  0.98140247  0.93185084  0.42316131     0.04300
N2753       N  0.96992045  0.94089851  0.38459640     0.66810
H2754       H  0.96965218  0.89319242  0.38314162     0.15710
H2755       H  0.51712326  0.95233769  0.53628227     0.15420
N2756       N  0.52068712  0.90689581  0.53198110     0.74510
O2757       O  0.98614374  0.96335509  0.36234975    -0.38940
O2758       O  0.94539567  0.92415677  0.36629896    -0.38880
O2759       O  0.53466393  0.89580095  0.51800626    -0.39590
O2760       O  0.52231238  0.91454842  0.57775219    -0.39650
C2761       C  0.71190040  0.65735277  0.81301044    -0.11930
C2762       C  0.73720318  0.66588796  0.84049434     0.05070
C2763       C  0.73888850  0.67464344  0.89190724    -0.07220
C2764       C  0.71521847  0.67383527  0.91428623    -0.07970
C2765       C  0.69017159  0.66534050  0.88637133    -0.02520
C2766       C  0.68873232  0.65746609  0.83480724     0.04300
N2767       N  0.66424150  0.65026708  0.80364374     0.66810
H2768       H  0.71018778  0.65090082  0.77361155     0.15710
H2769       H  0.71647283  0.68021047  0.95365045     0.15420
N2770       N  0.76460034  0.68549303  0.92141811     0.74510
O2771       O  0.65689589  0.63236656  0.76779742    -0.38940
O2772       O  0.65218874  0.66429558  0.80754986    -0.38880
O2773       O  0.78755952  0.70578914  0.90559672    -0.39590
O2774       O  0.76343251  0.67844710  0.96671890    -0.39650
C2775       C  0.86346405  0.79732092  0.92944214    -0.11930
C2776       C  0.86631299  0.79129589  0.97946477     0.05070
C2777       C  0.86590276  0.76639740  0.99009250    -0.07220
C2778       C  0.86283588  0.74820147  0.94957952    -0.07970
C2779       C  0.85970219  0.75415369  0.89939697    -0.02520
C2780       C  0.85937797  0.77877141  0.88948680     0.04300
N2781       N  0.85259097  0.78415752  0.84015841     0.66810
H2782       H  0.86264876  0.81593385  0.92181277     0.15710
H2783       H  0.86308216  0.72930612  0.95716296     0.15420
N2784       N  0.86869846  0.75938940  0.04102215     0.74510
O2785       O  0.83092302  0.76524707  0.81617633    -0.38940
O2786       O  0.86504635  0.80893434  0.82457527    -0.38880
O2787       O  0.88212909  0.77838930  0.07452292    -0.39590
O2788       O  0.85983519  0.73422866  0.05171495    -0.39650
C2789       C  0.93210967  0.65383179  0.57286279    -0.11930
C2790       C  0.93942735  0.67212808  0.61470080     0.05070
C2791       C  0.96771592  0.68745550  0.63324682    -0.07220
C2792       C  0.98829731  0.68428941  0.60896651    -0.07970
C2793       C  0.98092845  0.66606687  0.56686514    -0.02520
C2794       C  0.95269278  0.65098972  0.54780194     0.04300
N2795       N  0.94474546  0.63375785  0.50229116     0.66810
H2796       H  0.91022059  0.64180728  0.55948035     0.15710
H2797       H  0.51015218  0.69630998  0.62204409     0.15420
N2798       N  0.97602904  0.70700889  0.67516610     0.74510
O2799       O  0.91999410  0.61251931  0.49740217    -0.38940
O2800       O  0.96041604  0.64206588  0.46409541    -0.38880
O2801       O  0.97242249  0.69823963  0.71963479    -0.39590
O2802       O  0.99231642  0.73288723  0.66801598    -0.39650
C2803       C  0.96774293  0.79681793  0.54499127    -0.11930
C2804       C  0.95650523  0.80062448  0.50038080     0.05070
C2805       C  0.92656535  0.78603315  0.49286178    -0.07220
C2806       C  0.90897241  0.76930287  0.53178046    -0.07970
C2807       C  0.92007614  0.76608813  0.57727750    -0.02520
C2808       C  0.95013701  0.77919172  0.58329282     0.04300
N2809       N  0.96338832  0.77443063  0.62613184     0.66810
H2810       H  0.99065529  0.80823656  0.55015869     0.15710
H2811       H  0.88606938  0.75805820  0.52636551     0.15420
N2812       N  0.91363952  0.78750461  0.44619168     0.74510
O2813       O  0.99010637  0.78582449  0.62872218    -0.38940
O2814       O  0.94882672  0.75776041  0.66014769    -0.38880
O2815       O  0.88692151  0.77556163  0.44188425    -0.39590
O2816       O  0.92830031  0.79796027  0.40735405    -0.39650
C2817       C  0.93043952  0.74613132  0.88576128    -0.11930
C2818       C  0.93933857  0.75715856  0.83759261     0.05070
C2819       C  0.95482313  0.78658223  0.83238073    -0.07220
C2820       C  0.96035152  0.80405061  0.87499872    -0.07970
C2821       C  0.95172145  0.79306036  0.92318870    -0.02520
C2822       C  0.93671725  0.76357703  0.92886247     0.04300
N2823       N  0.92747748  0.75097988  0.97745531     0.66810
H2824       H  0.91691143  0.72364737  0.88953851     0.15710
H2825       H  0.97305080  0.82659413  0.87087617     0.15420
N2826       N  0.96523739  0.79900499  0.78423698     0.74510
O2827       O  0.92309858  0.76363902  0.01309195    -0.38940
O2828       O  0.92236094  0.72643584  0.98428363    -0.38880
O2829       O  0.96755578  0.82215095  0.77429101    -0.39590
O2830       O  0.97495887  0.78843573  0.75370213    -0.39650
C2831       C  0.88622644  0.64158628  0.96414440    -0.11930
C2832       C  0.89914953  0.65703337  0.92065059     0.05070
C2833       C  0.92852347  0.66619143  0.91375544    -0.07220
C2834       C  0.94297948  0.65844648  0.94674547    -0.07970
C2835       C  0.92994489  0.64193795  0.98819942    -0.02520
C2836       C  0.90121362  0.63400815  0.99847425     0.04300
N2837       N  0.88686287  0.61842515  0.04267447     0.66810
H2838       H  0.86401810  0.63434581  0.97013348     0.15710
H2839       H  0.96493053  0.66507187  0.93901714     0.15420
N2840       N  0.94426169  0.68269216  0.87190645     0.74510
O2841       O  0.86240917  0.61375363  0.05318255    -0.38940
O2842       O  0.89873905  0.61018743  0.07268170    -0.38880
O2843       O  0.95408053  0.70876110  0.87356336    -0.39590
O2844       O  0.95399301  0.67272608  0.84006976    -0.39650
C2845       C  0.80601251  0.78987267  0.59897065    -0.11930
C2846       C  0.83213281  0.80525587  0.57375098     0.05070
C2847       C  0.85321280  0.79853127  0.58222424    -0.07220
C2848       C  0.84859748  0.77817039  0.61684098    -0.07970
C2849       C  0.82288768  0.76290885  0.64270762    -0.02520
C2850       C  0.80098959  0.76862487  0.63339446     0.04300
N2851       N  0.77432853  0.75415614  0.65931766     0.66810
H2852       H  0.78972683  0.79494769  0.59268390     0.15710
H2853       H  0.86509493  0.77324028  0.62176095     0.15420
N2854       N  0.87874047  0.81079789  0.55341292     0.74510
O2855       O  0.75262614  0.75335493  0.64124141    -0.38940
O2856       O  0.77284389  0.74429225  0.70239549    -0.38880
O2857       O  0.90227579  0.81804497  0.57457538    -0.39590
O2858       O  0.87722955  0.81102398  0.50588446    -0.39650
C2859       C  0.76115913  0.68520929  0.53418375    -0.11930
C2860       C  0.77788924  0.67345986  0.52246916     0.05070
C2861       C  0.77090450  0.65631547  0.47787804    -0.07220
C2862       C  0.74547520  0.64877484  0.45080721    -0.07970
C2863       C  0.72717337  0.65793090  0.46706790    -0.02520
C2864       C  0.73545629  0.67681475  0.50906323     0.04300
N2865       N  0.71722043  0.68594396  0.52975835     0.66810
H2866       H  0.76679176  0.69918796  0.56707070     0.15710
H2867       H  0.73969197  0.63545765  0.41704888     0.15420
N2868       N  0.78892845  0.64647215  0.45950698     0.74510
O2869       O  0.71665873  0.68938489  0.57695800    -0.38940
O2870       O  0.70344684  0.69280975  0.50149990    -0.38880
O2871       O  0.81550256  0.66122787  0.46653660    -0.39590
O2872       O  0.77905794  0.62554811  0.42920202    -0.39650
C2873       C  0.82451530  0.55014398  0.80779821    -0.11930
C2874       C  0.85208953  0.57082780  0.79298425     0.05070
C2875       C  0.87522393  0.56856026  0.80913699    -0.07220
C2876       C  0.87021928  0.54658085  0.84085341    -0.07970
C2877       C  0.84235325  0.52490847  0.85363252    -0.02520
C2878       C  0.81926228  0.52694136  0.83554468     0.04300
N2879       N  0.79021055  0.50517259  0.84218797     0.66810
H2880       H  0.80626993  0.55137269  0.79622262     0.15710
H2881       H  0.88878262  0.54690330  0.85531744     0.15420
N2882       N  0.90341485  0.58656229  0.79080941     0.74510
O2883       O  0.77225641  0.51138385  0.85686681    -0.38940
O2884       O  0.78186042  0.98029009  0.82538313    -0.38880
O2885       O  0.91646296  0.61263592  0.80029224    -0.39590
O2886       O  0.91697712  0.57586265  0.77253683    -0.39650
C2887       C  0.75617529  0.56981994  0.90471159    -0.11930
C2888       C  0.75132836  0.57143377  0.85326624     0.05070
C2889       C  0.72313042  0.55778670  0.83413136    -0.07220
C2890       C  0.70048586  0.54307273  0.86689573    -0.07970
C2891       C  0.70527465  0.54198010  0.91864065    -0.02520
C2892       C  0.73359374  0.55587621  0.93790809     0.04300
N2893       N  0.73983549  0.55749008  0.99112696     0.66810
H2894       H  0.77777784  0.58120363  0.91976908     0.15710
H2895       H  0.67894559  0.53223289  0.85161529     0.15420
N2896       N  0.71698744  0.56028081  0.78256369     0.74510
O2897       O  0.76184282  0.55785251  0.00621129    -0.38940
O2898       O  0.72520512  0.56164337  0.02285854    -0.38880
O2899       O  0.72451908  0.54987589  0.74757363    -0.39590
O2900       O  0.69968633  0.56807390  0.77266752    -0.39650
C2901       C  0.71434492  0.54081985  0.54997376    -0.11930
C2902       C  0.68725541  0.52341545  0.56890350     0.05070
C2903       C  0.67893115  0.53225219  0.61307675    -0.07220
C2904       C  0.69820866  0.55825232  0.63702100    -0.07970
C2905       C  0.72547169  0.57552294  0.61820081    -0.02520
C2906       C  0.73338379  0.56676690  0.57354985     0.04300
N2907       N  0.76063713  0.58419910  0.55122673     0.66810
H2908       H  0.72019673  0.53478321  0.51496842     0.15710
H2909       H  0.69248538  0.56429978  0.67208114     0.15420
N2910       N  0.65125542  0.51493138  0.63446146     0.74510
O2911       O  0.77207819  0.57323846  0.52605382    -0.38940
O2912       O  0.77058744  0.61018875  0.54842702    -0.38880
O2913       O  0.63894635  0.48850071  0.63155139    -0.39590
O2914       O  0.63993817  0.52599088  0.65972223    -0.39650
C2915       C  0.82956323  0.56331003  0.55627408    -0.11930
C2916       C  0.83575553  0.59048088  0.54548344     0.05070
C2917       C  0.84751996  0.60158459  0.49752296    -0.07220
C2918       C  0.85300653  0.58571530  0.46312800    -0.07970
C2919       C  0.84772734  0.55927094  0.47491631    -0.02520
C2920       C  0.83533606  0.54743651  0.52161616     0.04300
N2921       N  0.82872785  0.51971672  0.53475112     0.66810
H2922       H  0.82041059  0.55441897  0.59223707     0.15710
H2923       H  0.86247806  0.59459509  0.42724959     0.15420
N2924       N  0.85483493  0.62909838  0.48275907     0.74510
O2925       O  0.82680238  0.51321048  0.58053925    -0.38940
O2926       O  0.82236748  0.50087017  0.50108247    -0.38880
O2927       O  0.87736710  0.65018689  0.50033372    -0.39590
O2928       O  0.84399875  0.63158390  0.44261784    -0.39650
loop_ 
_geom_bond_atom_site_label_1 
_geom_bond_atom_site_label_2 
_geom_bond_distance 
_geom_bond_site_symmetry_2 
_ccdc_geom_bond_type 
O1          Zr37   2.378       .  S
O1           C12   1.278       .  A
O2          Zr36   2.412       .  S
O2           C13   1.289       .  A
O3           Zr9   2.386       .  S
O3           C14   1.283       .  A
O4           Zr9   2.379       .  S
O4           C15   1.281       .  A
O5          Zr39   2.519       .  S
O5           C15   1.307       .  A
O6          Zr38   2.497       .  S
O6           C14   1.300       .  A
O7           Zr9   2.449       .  S
O7           C13   1.294       .  A
O8           Zr9   2.486       .  S
O8           C12   1.301       .  A
Zr9          O10   2.347       .  S
Zr9          O11   2.319       .  S
Zr9          O19   2.316       .  S
Zr9          O17   2.338       .  S
O10         Zr36   2.369       .  S
O10         Zr39   2.337       .  S
O11         Zr37   2.357       .  S
O11         Zr38   2.334       .  S
C12         C720   1.493       .  S
C13         C692   1.469       .  S
C14         C678   1.491       .  S
C15         C709   1.477       .  S
H16          O17   0.964       .  S
O17         Zr36   2.316       .  S
O17         Zr38   2.322       .  S
H18          O19   0.957       .  S
O19         Zr37   2.308       .  S
O19         Zr39   2.334       .  S
O20         Zr36   2.418       .  S
O20          C43   1.289       .  A
O21         Zr37   2.399       .  S
O21          C44   1.284       .  A
O22         Zr38   2.352       .  S
O22          C45   1.276       .  A
O23         Zr39   2.442       .  S
O23          C46   1.296       .  A
O24         Zr39   2.374       .  S
O24          C47   1.284       .  A
O25         Zr38   2.369       .  S
O25          C48   1.281       .  A
O26         Zr40   2.379       .  S
O26          C49   1.278       .  A
O27         Zr40   2.406       .  S
O27          C50   1.287       .  A
O28         Zr38   2.475       .  S
O28          C49   1.296       .  A
O29         Zr39   2.496       .  S
O29          C50   1.301       .  A
O30         Zr36   2.584       .  S
O30          C45   1.319       .  A
O31         Zr37   2.445       .  S
O31          C48   1.295       .  A
O32         Zr37   2.515       .  S
O32          C47   1.305       .  A
O33         Zr36   2.467       .  S
O33          C46   1.298       .  A
O34         Zr40   2.447       .  S
O34          C43   1.295       .  A
O35         Zr40   2.497       .  S
O35          C44   1.302       .  A
Zr36         O42   2.312       .  S
Zr36         O54   2.379       .  S
Zr37         O41   2.320       .  S
Zr37         O52   2.343       .  S
Zr38         O42   2.318       .  S
Zr38         O52   2.353       .  S
Zr39         O41   2.345       .  S
Zr39         O54   2.354       .  S
Zr40         O41   2.318       .  S
Zr40         O42   2.346       .  S
Zr40         O54   2.351       .  S
Zr40         O52   2.327       .  S
C43         C583   1.475       .  S
C44         C611   1.486       .  S
C45         C636   1.524       .  S
C46         C566   1.499       .  S
C47         C664   1.498       .  S
C48         C594   1.447       .  S
C49         C622   1.473       .  S
C50         C653   1.492       .  S
H51          O52   0.964       .  S
H53          O54   0.966       .  S
C55         C482   1.552       .  S
C55          C56   1.442       .  A
C55         C792   1.439       .  A
C56         C555   1.490       .  S
C56        C2253   1.421       .  A
C57         C538   1.492   1_545  S
C57          C58   1.404       .  A
C57        C2252   1.421   1_445  A
C58         C510   1.517       .  S
C58          C59   1.415       .  A
C59         C496   1.471       .  S
C59        C1524   1.429   1_455  A
C60         C524   1.507       .  S
C60         C787   1.439   1_545  A
C60        C1523   1.429       .  A
C61        C2061   1.448   1_455  S
C61          C62   1.394       .  A
C61          C66   1.386       .  A
C62          C63   1.400       .  A
C62          H67   1.085   1_455  S
C63         C499   1.468       .  S
C63          C64   1.401       .  A
C64          C65   1.399       .  A
C64          H68   1.084       .  S
C65         C468   1.450       .  S
C65          C66   1.384       .  A
C66          H69   1.085       .  S
C70         C454   1.519       .  S
C70          C71   1.429       .  A
C70         C807   1.418       .  A
C71         C804   1.415       .  A
C71          H76   1.082       .  S
C72         C541   1.499       .  S
C72          C73   1.393   1_565  A
C72         C803   1.415       .  A
C73          C74   1.386   1_545  A
C73          H77   1.085       .  S
C74         C706   1.483   1_565  S
C74          C75   1.412       .  A
C75         C802   1.418       .  A
C75          H78   1.083       .  S
C79         C723   1.469       .  S
C79          C80   1.399       .  A
C79          C84   1.391       .  A
C80          C81   1.408       .  A
C80          H85   1.074       .  S
C81         C527   1.525       .  S
C81          C82   1.421       .  A
C82          C83   1.417       .  A
C82         H818   1.079   1_545  S
C83        C1172   1.491   1_545  S
C83          C84   1.396       .  A
C84          H87   1.084       .  S
H86         C814   1.079       .  S
C88         C429   1.488       .  S
C88          C93   1.399       .  A
C88        C1553   1.419   1_455  A
C89          C90   1.417       .  A
C89        C1552   1.419       .  A
C89          H94   1.083       .  S
C90         C608   1.485       .  S
C90          C91   1.396       .  A
C91          C92   1.391       .  A
C91          H95   1.084       .  S
C92         C552   1.458       .  S
C92        C1557   1.394       .  A
C93        C1556   1.394   1_455  A
C93          H96   1.085       .  S
C97         C667   1.485       .  S
C97          C98   1.400       .  A
C97         C102   1.413       .  A
C98          C99   1.401       .  A
C98         H103   1.084       .  S
C99         C415   1.485       .  S
C99         C100   1.406       .  A
C100        C101   1.403       .  A
C100        H104   1.084       .  S
C101        C513   1.491       .  S
C101        C102   1.414       .  A
C102        H105   1.083       .  S
C106        C650   1.500       .  S
C106        C107   1.418       .  A
C106        C111   1.407       .  A
C107        C108   1.414       .  A
C107        H112   1.082       .  S
C108        C485   1.501       .  S
C108        C109   1.401       .  A
C109        C110   1.395       .  A
C109        H113   1.084       .  S
C110        C401   1.472       .  S
C110        C111   1.404       .  A
C111        H114   1.083       .  S
O115       Zr151   2.364       .  S
O115        C126   1.276       .  A
O116       Zr150   2.445       .  S
O116        C127   1.295       .  A
O117       Zr123   2.381       .  S
O117        C128   1.280       .  A
O118       Zr123   2.409       .  S
O118        C129   1.287       .  A
O119       Zr153   2.493       .  S
O119        C129   1.301       .  A
O120       Zr152   2.501       .  S
O120        C128   1.302       .  A
O121       Zr123   2.414       .  S
O121        C127   1.288       .  A
O122       Zr123   2.456       .  S
O122        C126   1.295       .  A
Zr123       O124   2.334       .  S
Zr123       O125   2.331       .  S
Zr123       O133   2.321       .  S
Zr123       O131   2.354       .  S
O124       Zr150   2.337       .  S
O124       Zr153   2.335       .  S
O125       Zr151   2.312       .  S
O125       Zr152   2.342       .  S
C126        C471   1.472       .  S
C127        C345   1.471       .  S
C128        C426   1.475       .  S
C129        C359   1.511       .  S
H130        O131   0.965       .  S
O131       Zr150   2.348       .  S
O131       Zr152   2.337       .  S
H132        O133   0.965       .  S
O133       Zr151   2.361       .  S
O133       Zr153   2.346       .  S
O134       Zr150   2.428       .  S
O134        C157   1.291       .  A
O135       Zr151   2.392       .  S
O135        C158   1.286       .  A
O136       Zr152   2.425       .  S
O136        C159   1.290       .  A
O137       Zr153   2.409       .  S
O137        C160   1.287       .  A
O138       Zr153   2.415       .  S
O138        C161   1.291       .  A
O139       Zr152   2.383       .  S
O139        C162   1.280       .  A
O140       Zr154   2.414       .  S
O140        C163   1.289       .  A
O141       Zr154   2.401       .  S
O141        C164   1.285       .  A
O142       Zr152   2.490       .  S
O142        C163   1.300       .  A
O143       Zr153   2.484       .  S
O143        C164   1.299       .  A
O144       Zr150   2.439       .  S
O144        C159   1.294       .  A
O145       Zr151   2.559       .  S
O145        C162   1.312       .  A
O146       Zr151   2.466       .  S
O146        C161   1.297       .  A
O147       Zr150   2.489       .  S
O147        C160   1.301       .  A
O148       Zr154   2.455       .  S
O148        C157   1.297       .  A
O149       Zr154   2.481       .  S
O149        C158   1.299       .  A
Zr150       O156   2.353       .  S
Zr150       O168   2.334       .  S
Zr151       O155   2.353       .  S
Zr151       O166   2.316       .  S
Zr152       O156   2.335       .  S
Zr152       O166   2.340       .  S
Zr153       O155   2.344       .  S
Zr153       O168   2.337       .  S
Zr154       O155   2.320       .  S
Zr154       O156   2.337       .  S
Zr154       O168   2.346       .  S
Zr154       O166   2.340       .  S
C157        C373   1.489       .  S
C158        C398   1.481       .  S
C159        C384   1.477       .  S
C160        C317   1.481       .  S
C161        C412   1.483       .  S
C162        C457   1.517       .  S
C163        C443   1.486       .  S
C164        C331   1.472       .  S
H165        O166   0.962       .  S
H167        O168   0.964       .  S
C169        C639   1.506   1_554  S
C169        C170   1.416       .  A
C169        C174   1.413       .  A
C170        C171   1.421       .  A
C170        H175   1.082       .  S
C171       C1820   1.514       .  S
C171        C172   1.406       .  A
C172        C173   1.403       .  A
C172       H1640   1.082       .  S
C173        C300   1.496       .  S
C173        C174   1.412       .  A
C174        H177   1.084   1_554  S
H176       C1636   1.082       .  S
C178        C303   1.506       .  S
C178        C911   1.411   1_545  A
C178       C1647   1.423       .  A
C179        C230   1.465       .  S
C179        C180   1.407       .  A
C179        C910   1.411       .  A
C180        C286   1.509       .  S
C180       C1645   1.414       .  A
C181        C272   1.498   1_655  S
C181        C182   1.427   1_655  A
C181       C1644   1.414       .  A
C182        C261   1.492       .  S
C182        C915   1.434       .  A
C183        C244   1.502       .  S
C183       C1642   1.423   1_455  A
C183        C914   1.434   1_545  A
C184        C387   1.483       .  S
C184        C185   1.400   1_554  A
C184        C189   1.404       .  A
C185        C918   1.396       .  A
C185        H190   1.083       .  S
C186        C695   1.481       .  S
C186        C187   1.403       .  A
C186        C917   1.396       .  A
C187        C920   1.403       .  A
C187        H191   1.084       .  S
C188        C258   1.474       .  S
C188        C189   1.404   1_556  A
C188        C919   1.403       .  A
C189        H192   1.084       .  S
C193        C342   1.471       .  S
C193        C198   1.407       .  A
C193       C1658   1.389   1_454  A
C194        C195   1.389       .  A
C194       C1657   1.389   1_556  A
C194        H199   1.085       .  S
C195        C625   1.476       .  S
C195        C196   1.405       .  A
C196        C197   1.414       .  A
C196        H200   1.083       .  S
C197        C275   1.503       .  S
C197       C1662   1.407   1_556  A
C198       C1661   1.407   1_454  A
C198        H201   1.082       .  S
C202        C314   1.529       .  S
C202        C203   1.421       .  A
C202        C207   1.424       .  A
C203        C204   1.407       .  A
C203        H208   1.078       .  S
C204        C569   1.488       .  S
C204        C205   1.397       .  A
C205        C206   1.399       .  A
C205        H209   1.084       .  S
C206        C247   1.493       .  S
C206        C207   1.408       .  A
C207        H210   1.078       .  S
C211       C1413   1.513       .  S
C211        C212   1.422       .  A
C211        C216   1.406       .  A
C212        C213   1.411       .  A
C212        H217   1.080       .  S
C213        C370   1.478       .  S
C213        C214   1.392       .  A
C214        C215   1.390       .  A
C214        H218   1.081       .  S
C215        C233   1.481       .  S
C215        C216   1.401       .  A
C216        H951   1.077       .  S
H219        C948   1.077   1_545  S
C220        C580   1.470   1_554  S
C220        C221   1.401       .  A
C220        C225   1.396       .  A
C221        C222   1.402       .  A
C221        H226   1.084       .  S
C222        C328   1.480       .  S
C222        C223   1.411       .  A
C223        C224   1.406       .  A
C223        H227   1.084       .  S
C224        C289   1.478       .  S
C224        C225   1.397       .  A
C225        H228   1.086   1_554  S
C229        C230   1.393       .  A
C229        C234   1.387       .  A
C229        H236   1.085   1_556  S
C230        C231   1.417       .  A
C231        C232   1.399       .  A
C231        N970   1.447       .  S
C232        C233   1.404       .  A
C232        H969   1.083       .  S
C233        C234   1.418       .  A
C234        N235   1.428   1_556  S
N235        O239   1.261       .  A
N235        O240   1.263       .  A
H237        C964   1.082       .  S
N238        C963   1.455       .  S
N238        O241   1.261       .  A
N238        O242   1.263   1_565  A
C243        C244   1.402       .  A
C243        C248   1.400       .  A
C243        H250   1.076       .  S
C244        C245   1.421       .  A
C245        C246   1.414       .  A
C245        N252   1.442   1_556  S
C246        C247   1.407       .  A
C246        H251   1.083   1_556  S
C247        C248   1.412       .  A
C248        N249   1.438       .  S
N249        O253   1.263       .  A
N249        O254   1.262       .  A
N252        O255   1.262       .  A
N252        O256   1.263       .  A
C257        C258   1.398       .  A
C257        C262   1.400       .  A
C257        H264   1.084       .  S
C258        C991   1.413   1_556  A
C259        C260   1.405       .  A
C259        C990   1.413   1_554  A
C259        N266   1.442       .  S
C260        C993   1.404   1_554  A
C260        H265   1.080       .  S
C261        C262   1.417       .  A
C261        C992   1.404   1_556  A
C262        N263   1.434       .  S
N263        O267   1.261       .  A
N263        O268   1.263       .  A
N266        O269   1.263       .  A
N266        O270   1.263       .  A
C271        C272   1.405   1_554  A
C271        C276   1.409       .  A
C271        H278   1.084       .  S
C272       C1737   1.421   1_455  A
C273        C274   1.402       .  A
C273       C1736   1.421       .  A
C273        N280   1.445       .  S
C274        C275   1.405       .  A
C274        H279   1.081       .  S
C275       C1740   1.420   1_556  A
C276       C1739   1.420   1_454  A
C276        N277   1.438       .  S
N277        O281   1.263       .  A
N277        O282   1.263   1_455  A
N280        O283   1.259       .  A
N280        O284   1.263       .  A
C285        C286   1.410   1_554  A
C285        C290   1.409       .  A
C285        H292   1.083       .  S
C286        C287   1.422       .  A
C287        C288   1.401       .  A
C287        N294   1.437       .  S
C288        C289   1.401   1_556  A
C288        H293   1.085       .  S
C289        C290   1.413       .  A
C290        N291   1.445       .  S
N291        O295   1.263       .  A
N291        O296   1.262       .  A
N294        O297   1.257       .  A
N294        O298   1.263       .  A
C299        C300   1.406   1_556  A
C299        C304   1.415       .  A
C299        H306   1.083       .  S
C300        C301   1.415       .  A
C301       C1766   1.405       .  A
C301       N1772   1.441       .  S
C302       C1765   1.405       .  A
C302       C1767   1.407   1_554  A
C302        H307   1.084       .  S
C303        C304   1.422       .  A
C303       C1766   1.407   1_556  A
C304        N305   1.441       .  S
N305        O309   1.263       .  A
N305        O310   1.259       .  A
N308       C1765   1.441       .  S
N308        O312   1.263       .  A
N308       O1775   1.263       .  A
O311       N1772   1.263       .  A
C313        C314   1.414       .  A
C313        C318   1.408   1_556  A
C313        H320   1.075       .  S
C314        C315   1.429       .  A
C315        C316   1.414       .  A
C315        N322   1.438       .  S
C316        C317   1.400   1_556  A
C316        H321   1.083       .  S
C317        C318   1.412       .  A
C318        N319   1.446       .  S
N319        O323   1.263       .  A
N319        O324   1.262       .  A
N322        O325   1.263       .  A
N322        O326   1.263       .  A
C327        C328   1.399       .  A
C327        C332   1.399       .  A
C327        H334   1.084       .  S
C328        C329   1.419       .  A
C329        C330   1.412       .  A
C329        N336   1.442       .  S
C330        C331   1.403       .  A
C330        H335   1.083       .  S
C331        C332   1.414       .  A
C332        N333   1.439       .  S
N333        O337   1.263       .  A
N333        O338   1.262       .  A
N336        O339   1.262       .  A
N336        O340   1.263       .  A
C341        C342   1.395       .  A
C341        C346   1.386       .  A
C341        H348   1.084       .  S
C342        C343   1.419       .  A
C343        C344   1.403       .  A
C343        N350   1.441   1_455  S
C344        C345   1.403       .  A
C344        H349   1.084       .  S
C345        C346   1.409       .  A
C346        N347   1.423       .  S
N347        O351   1.262       .  A
N347        O352   1.260       .  A
N350        O353   1.263       .  A
N350        O354   1.263       .  A
C355        C356   1.416       .  A
C355        C360   1.413       .  A
C355        H362   1.081       .  S
C356       C1635   1.514   1_455  S
C356        C357   1.415       .  A
C357        C358   1.408       .  A
C357       N1828   1.439   1_455  S
C358        C359   1.415       .  A
C358        H363   1.083       .  S
C359        C360   1.415       .  A
C360        N361   1.437       .  S
N361        O365   1.263       .  A
N361        O366   1.262       .  A
N364       C1821   1.439       .  S
N364        O367   1.263       .  A
N364       O1832   1.263       .  A
O368       N1828   1.263       .  A
C369        C370   1.402       .  A
C369        C374   1.407       .  A
C369        H376   1.084       .  S
C370        C371   1.416   1_556  A
C371        C372   1.403       .  A
C371        N378   1.444       .  S
C372        C373   1.405       .  A
C372        H377   1.083       .  S
C373        C374   1.420   1_554  A
C374        N375   1.439       .  S
N375        O379   1.263       .  A
N375        O380   1.262       .  A
N378        O381   1.262       .  A
N378        O382   1.263       .  A
C383        C384   1.405       .  A
C383        C388   1.404       .  A
C383        H390   1.084       .  S
C384        C385   1.409       .  A
C385        C386   1.393       .  A
C385        N392   1.435       .  S
C386        C387   1.405       .  A
C386        H391   1.083   1_554  S
C387        C388   1.416       .  A
C388        N389   1.437       .  S
N389        O393   1.263       .  A
N389        O394   1.262       .  A
N392        O395   1.261       .  A
N392        O396   1.263   1_554  A
C397        C398   1.406       .  A
C397        C402   1.397       .  A
C397        H404   1.083       .  S
C398        C399   1.415       .  A
C399        C400   1.407       .  A
C399        N406   1.435       .  S
C400        C401   1.403       .  A
C400        H405   1.084       .  S
C401        C402   1.412       .  A
C402        N403   1.442       .  S
N403        O407   1.263       .  A
N403        O408   1.262       .  A
N406        O409   1.262       .  A
N406        O410   1.262       .  A
C411        C412   1.409       .  A
C411        C416   1.402       .  A
C411        H418   1.084       .  S
C412        C413   1.415       .  A
C413        C414   1.402       .  A
C413        N420   1.436       .  S
C414        C415   1.407       .  A
C414        H419   1.083       .  S
C415        C416   1.412       .  A
C416        N417   1.441       .  S
N417        O421   1.263       .  A
N417        O422   1.263       .  A
N420        O423   1.261       .  A
N420        O424   1.262       .  A
C425        C426   1.404       .  A
C425        C430   1.406       .  A
C425        H432   1.083       .  S
C426        C427   1.414       .  A
C427        C428   1.410       .  A
C427        N434   1.443       .  S
C428        C429   1.408       .  A
C428        H433   1.084       .  S
C429        C430   1.415       .  A
C430        N431   1.441       .  S
N431        O435   1.263       .  A
N431        O436   1.262       .  A
N434        O437   1.263       .  A
N434        O438   1.263       .  A
C439        C440   1.393       .  A
C439        C444   1.386       .  A
C439        H446   1.084       .  S
C440        C815   1.491       .  S
C440        C441   1.427       .  A
C441        C442   1.419       .  A
C441       N1180   1.440       .  S
C442        C443   1.403       .  A
C442        H447   1.083       .  S
C443        C444   1.412       .  A
C444        N445   1.424       .  S
N445        O449   1.262       .  A
N445        O450   1.260       .  A
N448       C1173   1.440   1_545  S
N448        O451   1.263       .  A
N448        O452   1.263       .  A
C453        C454   1.421       .  A
C453        C458   1.436       .  A
C453        H460   1.082       .  S
C454        C455   1.407       .  A
C455        C456   1.391       .  A
C455        N462   1.432       .  S
C456        C457   1.409       .  A
C456        H461   1.073       .  S
C457        C458   1.425       .  A
C458        N459   1.443       .  S
N459        O463   1.263       .  A
N459        O464   1.261       .  A
N462        O465   1.262       .  A
N462        O466   1.263       .  A
C467        C468   1.387       .  A
C467        C472   1.386       .  A
C467        H474   1.085       .  S
C468        C469   1.410       .  A
C469        C470   1.395       .  A
C469        N476   1.434       .  S
C470        C471   1.402       .  A
C470        H475   1.084       .  S
C471        C472   1.426       .  A
C472        N473   1.433       .  S
N473        O477   1.262       .  A
N473        O478   1.262       .  A
N476        O479   1.262   1_455  A
N476        O480   1.262       .  A
C481        C482   1.410       .  A
C481        C486   1.403       .  A
C481        H488   1.073       .  S
C482        C483   1.419       .  A
C483        C484   1.409       .  A
C483        N490   1.430       .  S
C484        C485   1.407       .  A
C484        H489   1.083       .  S
C485        C486   1.411       .  A
C486        N487   1.432       .  S
N487        O491   1.261       .  A
N487        O492   1.262       .  A
N490        O493   1.263       .  A
N490        O494   1.264       .  A
C495        C496   1.399       .  A
C495        C500   1.400       .  A
C495       H1966   1.083       .  S
C496        C497   1.416       .  A
C497        C498   1.393       .  A
C497        N504   1.443       .  S
C498        C499   1.400       .  A
C498        H503   1.084       .  S
C499        C500   1.415       .  A
C500       N1965   1.439       .  S
N501       C1964   1.439       .  S
N501        O505   1.262       .  A
N501        O506   1.263       .  A
H502       C1959   1.083       .  S
N504        O507   1.263       .  A
N504        O508   1.262       .  A
C509        C510   1.406       .  A
C509        C514   1.410       .  A
C509        H516   1.077       .  S
C510        C511   1.422       .  A
C511        C512   1.411       .  A
C511        N518   1.440       .  S
C512        C513   1.403       .  A
C512        H517   1.084       .  S
C513        C514   1.417       .  A
C514        N515   1.442       .  S
N515        O519   1.263       .  A
N515        O520   1.262       .  A
N518        O521   1.261       .  A
N518        O522   1.263       .  A
C523        C524   1.402       .  A
C523        C528   1.407       .  A
C523        H530   1.081       .  S
C524        C525   1.410       .  A
C525        C526   1.407       .  A
C525       N1264   1.432   1_545  S
C526        C527   1.413       .  A
C526        H531   1.080       .  S
C527        C528   1.432       .  A
C528        N529   1.434       .  S
N529        O533   1.263       .  A
N529        O534   1.263       .  A
N532       C1257   1.432       .  S
N532        O535   1.261       .  A
N532       O1268   1.262       .  A
O536       N1264   1.262       .  A
C537        C542   1.407       .  A
C537       C1270   1.406       .  A
C537        H544   1.083       .  S
C538        C539   1.410   1_565  A
C538       C1269   1.406       .  A
C539        C540   1.396   1_545  A
C539        N546   1.439       .  S
C540        C541   1.410       .  A
C540        H545   1.084       .  S
C541       C1274   1.414       .  A
C542       C1273   1.414       .  A
C542        N543   1.428       .  S
N543        O547   1.262       .  A
N543        O548   1.261       .  A
N546        O549   1.262       .  A
N546        O550   1.263       .  A
C551        C552   1.399       .  A
C551        C556   1.398       .  A
C551        H558   1.084       .  S
C552       C2017   1.410       .  A
C553        C554   1.392       .  A
C553       C2016   1.410   1_455  A
C553        N560   1.441       .  S
C554       C2019   1.405   1_455  A
C554        H559   1.082       .  S
C555        C556   1.409       .  A
C555       C2018   1.405       .  A
C556        N557   1.430       .  S
N557        O561   1.261       .  A
N557        O562   1.262       .  A
N560        O563   1.262       .  A
N560        O564   1.263       .  A
C565        C566   1.408       .  A
C565        C570   1.403       .  A
C565        H572   1.083       .  S
C566        C567   1.422       .  A
C567        C568   1.411       .  A
C567        N574   1.435       .  S
C568        C569   1.403       .  A
C568        H573   1.084       .  S
C569        C570   1.414       .  A
C570        N571   1.439       .  S
N571        O575   1.263       .  A
N571        O576   1.263       .  A
N574        O577   1.262       .  A
N574        O578   1.263       .  A
C579        C580   1.402       .  A
C579        C584   1.394       .  A
C579        H586   1.085       .  S
C580        C581   1.411       .  A
C581        C582   1.406       .  A
C581        N588   1.443   1_556  S
C582        C583   1.409       .  A
C582        H587   1.083       .  S
C583        C584   1.412       .  A
C584        N585   1.438       .  S
N585        O589   1.263       .  A
N585        O590   1.263       .  A
N588        O591   1.263       .  A
N588        O592   1.263       .  A
C593        C594   1.396       .  A
C593        C598   1.390       .  A
C593        H600   1.083       .  S
C594        C595   1.410       .  A
C595        C596   1.389       .  A
C595        N602   1.432       .  S
C596        C597   1.398       .  A
C596       H2065   1.084       .  S
C597       C1525   1.448       .  S
C597        C598   1.412       .  A
C598        N599   1.440       .  S
N599        O603   1.261       .  A
N599        O604   1.262       .  A
H601       C2060   1.084   1_455  S
N602        O605   1.262       .  A
N602        O606   1.262       .  A
C607        C608   1.402       .  A
C607        C612   1.413       .  A
C607        H614   1.083       .  S
C608        C609   1.419       .  A
C609        C610   1.408       .  A
C609        N616   1.449       .  S
C610        C611   1.405       .  A
C610        H615   1.084       .  S
C611        C612   1.425       .  A
C612        N613   1.448       .  S
N613        O617   1.263       .  A
N613        O618   1.260       .  A
N616        O619   1.263       .  A
N616        O620   1.262       .  A
C621        C622   1.405       .  A
C621        C626   1.402       .  A
C621        H628   1.083       .  S
C622        C623   1.413       .  A
C623        C624   1.397       .  A
C623        N630   1.438       .  S
C624        C625   1.403       .  A
C624        H629   1.084       .  S
C625        C626   1.418       .  A
C626        N627   1.444       .  S
N627        O631   1.262   1_556  A
N627        O632   1.263       .  A
N630        O633   1.263       .  A
N630        O634   1.262       .  A
C635        C636   1.411       .  A
C635        C640   1.434       .  A
C635        H642   1.083       .  S
C636        C637   1.433       .  A
C637        C638   1.396       .  A
C637        N644   1.432       .  S
C638        C639   1.391       .  A
C638        H643   1.085       .  S
C639        C640   1.431       .  A
C640        N641   1.446   1_556  S
N641        O645   1.263       .  A
N641        O646   1.262       .  A
N644        O647   1.260       .  A
N644        O648   1.263       .  A
C649        C650   1.414       .  A
C649        C654   1.422       .  A
C649        H656   1.083       .  S
C650        C651   1.409       .  A
C651        C652   1.394       .  A
C651        N658   1.434       .  S
C652        C653   1.406       .  A
C652        H657   1.084       .  S
C653        C654   1.418       .  A
C654        N655   1.441       .  S
N655        O659   1.263       .  A
N655        O660   1.262       .  A
N658        O661   1.263       .  A
N658        O662   1.262       .  A
C663        C664   1.409       .  A
C663        C668   1.397       .  A
C663        H670   1.085       .  S
C664        C665   1.419       .  A
C665        C666   1.419       .  A
C665        N672   1.439       .  S
C666        C667   1.408       .  A
C666        H671   1.083       .  S
C667        C668   1.414       .  A
C668        N669   1.443       .  S
N669        O673   1.263       .  A
N669        O674   1.261       .  A
N672        O675   1.261       .  A
N672        O676   1.263       .  A
C677        C678   1.412       .  A
C677        C682   1.398       .  A
C677        H684   1.084       .  S
C678        C679   1.408       .  A
C679        C680   1.408       .  A
C679        N686   1.435       .  S
C680        C681   1.423       .  A
C680        H685   1.080       .  S
C681        C943   1.513       .  S
C681        C682   1.415       .  A
C682        N683   1.434       .  S
N683        O687   1.263       .  A
N683       O1420   1.262   1_545  A
N686        O689   1.261       .  A
N686        O690   1.263       .  A
O688       N1415   1.262       .  A
C691        C692   1.401       .  A
C691        C696   1.399       .  A
C691        H698   1.084       .  S
C692        C693   1.412       .  A
C693        C694   1.399       .  A
C693        N700   1.433       .  S
C694        C695   1.403       .  A
C694        H699   1.084       .  S
C695        C696   1.418       .  A
C696        N697   1.439       .  S
N697        O701   1.263   1_556  A
N697        O702   1.263   1_556  A
N700        O703   1.262       .  A
N700        O704   1.262       .  A
C705        C706   1.393       .  A
C705        C710   1.400       .  A
C705        H712   1.084       .  S
C706        C707   1.425       .  A
C707        C708   1.409       .  A
C707        N714   1.441       .  S
C708        C709   1.397       .  A
C708        H713   1.082       .  S
C709        C710   1.422       .  A
C710        N711   1.436       .  S
N711        O715   1.263       .  A
N711        O716   1.259       .  A
N714        O717   1.263   1_545  A
N714        O718   1.263       .  A
C719        C720   1.406       .  A
C719        C724   1.407       .  A
C719        H726   1.083       .  S
C720        C721   1.429       .  A
C721        C722   1.394       .  A
C721        N728   1.433       .  S
C722        C723   1.390       .  A
C722        H727   1.085       .  S
C723        C724   1.416       .  A
C724        N725   1.443       .  S
N725        O729   1.263       .  A
N725        O730   1.262       .  A
N728        O731   1.262       .  A
N728        O732   1.262       .  A
O733       Zr769   2.378       .  S
O733        C744   1.278       .  A
O734       Zr768   2.411       .  S
O734        C745   1.289       .  A
O735       Zr741   2.386       .  S
O735        C746   1.283       .  A
O736       Zr741   2.379       .  S
O736        C747   1.281       .  A
O737       Zr771   2.519       .  S
O737        C747   1.307       .  A
O738       Zr770   2.497       .  S
O738        C746   1.300       .  A
O739       Zr741   2.449       .  S
O739        C745   1.294       .  A
O740       Zr741   2.486       .  S
O740        C744   1.301       .  A
Zr741       O742   2.347       .  S
Zr741       O743   2.319       .  S
Zr741       O751   2.316       .  S
Zr741       O749   2.338       .  S
O742       Zr768   2.369       .  S
O742       Zr771   2.337       .  S
O743       Zr769   2.357       .  S
O743       Zr770   2.334       .  S
C744       C1452   1.493       .  S
C745       C1424   1.469       .  S
C746       C1410   1.491       .  S
C747       C1441   1.477       .  S
H748        O749   0.964       .  S
O749       Zr768   2.316       .  S
O749       Zr770   2.322       .  S
H750        O751   0.957       .  S
O751       Zr769   2.308       .  S
O751       Zr771   2.334       .  S
O752       Zr768   2.418       .  S
O752        C775   1.289       .  A
O753       Zr769   2.399       .  S
O753        C776   1.284       .  A
O754       Zr770   2.352       .  S
O754        C777   1.276       .  A
O755       Zr771   2.442       .  S
O755        C778   1.296       .  A
O756       Zr771   2.374       .  S
O756        C779   1.284       .  A
O757       Zr770   2.369       .  S
O757        C780   1.281       .  A
O758       Zr772   2.379       .  S
O758        C781   1.278       .  A
O759       Zr772   2.406       .  S
O759        C782   1.287       .  A
O760       Zr770   2.475       .  S
O760        C781   1.296       .  A
O761       Zr771   2.496       .  S
O761        C782   1.301       .  A
O762       Zr768   2.584       .  S
O762        C777   1.319       .  A
O763       Zr769   2.444       .  S
O763        C780   1.295       .  A
O764       Zr769   2.514       .  S
O764        C779   1.305       .  A
O765       Zr768   2.467       .  S
O765        C778   1.298       .  A
O766       Zr772   2.447       .  S
O766        C775   1.295       .  A
O767       Zr772   2.497       .  S
O767        C776   1.302       .  A
Zr768       O774   2.312       .  S
Zr768       O786   2.379       .  S
Zr769       O773   2.320       .  S
Zr769       O784   2.343       .  S
Zr770       O774   2.318       .  S
Zr770       O784   2.353       .  S
Zr771       O773   2.345       .  S
Zr771       O786   2.354       .  S
Zr772       O773   2.318       .  S
Zr772       O774   2.345       .  S
Zr772       O786   2.351       .  S
Zr772       O784   2.327       .  S
C775       C1315   1.475       .  S
C776       C1343   1.486       .  S
C777       C1368   1.524       .  S
C778       C1298   1.499       .  S
C779       C1396   1.498       .  S
C780       C1326   1.447       .  S
C781       C1354   1.473       .  S
C782       C1385   1.492       .  S
H783        O784   0.964       .  S
H785        O786   0.966       .  S
C787       C1214   1.552       .  S
C787        C788   1.442       .  A
C788       C1287   1.490       .  S
C788       C1521   1.421   1_565  A
C789       C1270   1.492       .  S
C789       C1520   1.421   1_455  A
C789        C790   1.404       .  A
C790       C1242   1.516       .  S
C790        C791   1.415       .  A
C791       C1228   1.471       .  S
C791       C2256   1.429   1_455  A
C792       C1256   1.507       .  S
C792       C2255   1.429       .  A
C793       C2793   1.448   1_455  S
C793        C794   1.394       .  A
C793        C798   1.386       .  A
C794        C795   1.400       .  A
C794        H799   1.085   1_455  S
C795       C1231   1.468       .  S
C795        C796   1.401       .  A
C796        C797   1.399       .  A
C796        H800   1.084       .  S
C797       C1200   1.450       .  S
C797        C798   1.384       .  A
C798        H801   1.085       .  S
C802       C1186   1.519       .  S
C802        C803   1.429       .  A
C803        H808   1.082       .  S
C804       C1273   1.499       .  S
C804        C805   1.393       .  A
C805        C806   1.386       .  A
C805        H809   1.085       .  S
C806       C1438   1.483       .  S
C806        C807   1.412       .  A
C807        H810   1.083       .  S
C811       C1455   1.469       .  S
C811        C812   1.399       .  A
C811        C816   1.391       .  A
C812        C813   1.409       .  A
C812        H817   1.074       .  S
C813       C1259   1.525       .  S
C813        C814   1.421       .  A
C814        C815   1.418       .  A
C815        C816   1.396       .  A
C816        H819   1.084       .  S
C820       C1161   1.488       .  S
C820       C2285   1.419   1_455  A
C820        C825   1.398       .  A
C821       C2284   1.419       .  A
C821        C822   1.417       .  A
C821        H826   1.083       .  S
C822       C1340   1.485       .  S
C822        C823   1.396       .  A
C823        C824   1.391       .  A
C823        H827   1.084       .  S
C824       C1284   1.458       .  S
C824       C2289   1.394       .  A
C825       C2288   1.394   1_455  A
C825        H828   1.085       .  S
C829       C1399   1.485       .  S
C829        C830   1.400       .  A
C829        C834   1.413       .  A
C830        C831   1.401       .  A
C830        H835   1.084       .  S
C831       C1147   1.485       .  S
C831        C832   1.406       .  A
C832        C833   1.403       .  A
C832        H836   1.084       .  S
C833       C1245   1.491       .  S
C833        C834   1.414       .  A
C834        H837   1.083       .  S
C838       C1382   1.500       .  S
C838        C839   1.418       .  A
C838        C843   1.407       .  A
C839        C840   1.414       .  A
C839        H844   1.082       .  S
C840       C1217   1.501       .  S
C840        C841   1.401       .  A
C841        C842   1.395       .  A
C841        H845   1.084       .  S
C842       C1133   1.472       .  S
C842        C843   1.404       .  A
C843        H846   1.083       .  S
O847       Zr883   2.364       .  S
O847        C858   1.276       .  A
O848       Zr882   2.445       .  S
O848        C859   1.295       .  A
O849       Zr855   2.381       .  S
O849        C860   1.280       .  A
O850       Zr855   2.409       .  S
O850        C861   1.287       .  A
O851       Zr885   2.494       .  S
O851        C861   1.301       .  A
O852       Zr884   2.501       .  S
O852        C860   1.302       .  A
O853       Zr855   2.414       .  S
O853        C859   1.288       .  A
O854       Zr855   2.456       .  S
O854        C858   1.295       .  A
Zr855       O856   2.334       .  S
Zr855       O857   2.331       .  S
Zr855       O865   2.321       .  S
Zr855       O863   2.354       .  S
O856       Zr882   2.337       .  S
O856       Zr885   2.335       .  S
O857       Zr883   2.312       .  S
O857       Zr884   2.342       .  S
C858       C1203   1.472       .  S
C859       C1077   1.471       .  S
C860       C1158   1.475       .  S
C861       C1091   1.511       .  S
H862        O863   0.965       .  S
O863       Zr882   2.348       .  S
O863       Zr884   2.337       .  S
H864        O865   0.965       .  S
O865       Zr883   2.361       .  S
O865       Zr885   2.346       .  S
O866       Zr882   2.428       .  S
O866        C889   1.291       .  A
O867       Zr883   2.392       .  S
O867        C890   1.286       .  A
O868       Zr884   2.425       .  S
O868        C891   1.290       .  A
O869       Zr885   2.409       .  S
O869        C892   1.287       .  A
O870       Zr885   2.415       .  S
O870        C893   1.291       .  A
O871       Zr884   2.383       .  S
O871        C894   1.280       .  A
O872       Zr886   2.414       .  S
O872        C895   1.289       .  A
O873       Zr886   2.401       .  S
O873        C896   1.285       .  A
O874       Zr884   2.490       .  S
O874        C895   1.300       .  A
O875       Zr885   2.484       .  S
O875        C896   1.299       .  A
O876       Zr882   2.439       .  S
O876        C891   1.294       .  A
O877       Zr883   2.559       .  S
O877        C894   1.312       .  A
O878       Zr883   2.466       .  S
O878        C893   1.297       .  A
O879       Zr882   2.489       .  S
O879        C892   1.301       .  A
O880       Zr886   2.455       .  S
O880        C889   1.297       .  A
O881       Zr886   2.481       .  S
O881        C890   1.299       .  A
Zr882       O888   2.353       .  S
Zr882       O900   2.334       .  S
Zr883       O887   2.353       .  S
Zr883       O898   2.316       .  S
Zr884       O888   2.335       .  S
Zr884       O898   2.340       .  S
Zr885       O887   2.344       .  S
Zr885       O900   2.337       .  S
Zr886       O887   2.320       .  S
Zr886       O888   2.337       .  S
Zr886       O900   2.346       .  S
Zr886       O898   2.340       .  S
C889       C1105   1.489       .  S
C890       C1130   1.481       .  S
C891       C1116   1.476       .  S
C892       C1049   1.481       .  S
C893       C1144   1.483       .  S
C894       C1189   1.517       .  S
C895       C1175   1.486       .  S
C896       C1063   1.472       .  S
H897        O898   0.962       .  S
H899        O900   0.964       .  S
C901       C1371   1.506   1_554  S
C901        C902   1.416       .  A
C901        C906   1.413       .  A
C902        C903   1.421       .  A
C902        H907   1.082       .  S
C903       C2552   1.514       .  S
C903        C904   1.406       .  A
C904        C905   1.403       .  A
C904       H2372   1.082       .  S
C905       C1032   1.496       .  S
C905        C906   1.412       .  A
C906        H909   1.084   1_554  S
H908       C2368   1.082       .  S
C910       C1035   1.506       .  S
C910       C2379   1.423       .  A
C911        C962   1.465       .  S
C911        C912   1.407       .  A
C912       C1018   1.509       .  S
C912       C2377   1.415       .  A
C913       C1004   1.498   1_655  S
C913       C2376   1.414       .  A
C913        C914   1.427   1_655  A
C914        C993   1.492   1_565  S
C915        C976   1.502       .  S
C915       C2374   1.423   1_455  A
C916       C1119   1.483       .  S
C916        C917   1.400   1_564  A
C916        C921   1.404       .  A
C917        H922   1.083       .  S
C918       C1427   1.481       .  S
C918        C919   1.403       .  A
C919        H923   1.084       .  S
C920        C990   1.474       .  S
C920        C921   1.404   1_546  A
C921        H924   1.084       .  S
C925       C1074   1.471       .  S
C925       C2390   1.389   1_454  A
C925        C930   1.407       .  A
C926       C2389   1.389   1_556  A
C926        C927   1.389       .  A
C926        H931   1.085       .  S
C927       C1357   1.476       .  S
C927        C928   1.405       .  A
C928        C929   1.414       .  A
C928        H932   1.083       .  S
C929       C1007   1.503       .  S
C929       C2394   1.407   1_556  A
C930       C2393   1.407   1_454  A
C930        H933   1.082       .  S
C934       C1046   1.529       .  S
C934        C935   1.421       .  A
C934        C939   1.424       .  A
C935        C936   1.407       .  A
C935        H940   1.078       .  S
C936       C1301   1.488       .  S
C936        C937   1.397       .  A
C937        C938   1.399       .  A
C937        H941   1.084       .  S
C938        C979   1.493       .  S
C938        C939   1.408       .  A
C939        H942   1.078       .  S
C943        C944   1.422   1_545  A
C943        C948   1.406   1_545  A
C944        C945   1.411       .  A
C944        H949   1.080       .  S
C945       C1102   1.478       .  S
C945        C946   1.392       .  A
C946        C947   1.390       .  A
C946        H950   1.081       .  S
C947        C965   1.482       .  S
C947        C948   1.400       .  A
C952       C1312   1.470   1_554  S
C952        C953   1.401       .  A
C952        C957   1.396       .  A
C953        C954   1.402       .  A
C953        H958   1.084       .  S
C954       C1060   1.480       .  S
C954        C955   1.411       .  A
C955        C956   1.406       .  A
C955        H959   1.084       .  S
C956       C1021   1.478       .  S
C956        C957   1.397       .  A
C957        H960   1.086   1_554  S
C961        C962   1.394       .  A
C961        C966   1.387       .  A
C961        H968   1.085   1_556  S
C962        C963   1.420       .  A
C963        C964   1.401       .  A
C964        C965   1.409       .  A
C965        C966   1.419       .  A
C966        N967   1.429   1_556  S
N967        O971   1.261       .  A
N967        O972   1.263       .  A
N970        O973   1.262       .  A
N970        O974   1.263       .  A
C975        C976   1.402       .  A
C975        C980   1.400       .  A
C975        H982   1.076       .  S
C976        C977   1.420       .  A
C977        C978   1.414       .  A
C977        N984   1.442   1_556  S
C978        C979   1.407       .  A
C978        H983   1.083   1_556  S
C979        C980   1.412       .  A
C980        N981   1.438       .  S
N981        O985   1.263       .  A
N981        O986   1.262       .  A
N984        O987   1.262       .  A
N984        O988   1.263       .  A
C989        C990   1.398   1_565  A
C989        C994   1.400       .  A
C989        H996   1.084       .  S
C991        C992   1.405       .  A
C991        N998   1.442       .  S
C992        H997   1.080       .  S
C993        C994   1.417   1_545  A
C994        N995   1.434       .  S
N995        O999   1.261       .  A
N995       O1000   1.263       .  A
N998       O1001   1.263       .  A
N998       O1002   1.263       .  A
C1003      C1004   1.405   1_554  A
C1003      C1008   1.409       .  A
C1003      H1010   1.084       .  S
C1004      C2469   1.421   1_455  A
C1005      C2468   1.421       .  A
C1005      C1006   1.402       .  A
C1005      N1012   1.445       .  S
C1006      C1007   1.405       .  A
C1006      H1011   1.081       .  S
C1007      C2472   1.420   1_556  A
C1008      C2471   1.420   1_454  A
C1008      N1009   1.438       .  S
N1009      O1013   1.263       .  A
N1009      O1014   1.263   1_455  A
N1012      O1015   1.259       .  A
N1012      O1016   1.263       .  A
C1017      C1018   1.410   1_554  A
C1017      C1022   1.409       .  A
C1017      H1024   1.083       .  S
C1018      C1019   1.422       .  A
C1019      C1020   1.401       .  A
C1019      N1026   1.437       .  S
C1020      C1021   1.401   1_556  A
C1020      H1025   1.085       .  S
C1021      C1022   1.413       .  A
C1022      N1023   1.445       .  S
N1023      O1027   1.263       .  A
N1023      O1028   1.262       .  A
N1026      O1029   1.257       .  A
N1026      O1030   1.263       .  A
C1031      C1032   1.406   1_556  A
C1031      C1036   1.415       .  A
C1031      H1038   1.083       .  S
C1032      C1033   1.415       .  A
C1033      C2498   1.405       .  A
C1033      N2504   1.441       .  S
C1034      C2497   1.405       .  A
C1034      C2499   1.407   1_554  A
C1034      H1039   1.084       .  S
C1035      C2498   1.407   1_556  A
C1035      C1036   1.422       .  A
C1036      N1037   1.441       .  S
N1037      O1041   1.263       .  A
N1037      O1042   1.259       .  A
N1040      C2497   1.441       .  S
N1040      O2507   1.263       .  A
N1040      O1044   1.263       .  A
O1043      N2504   1.263       .  A
C1045      C1046   1.414       .  A
C1045      C1050   1.408   1_556  A
C1045      H1052   1.075       .  S
C1046      C1047   1.429       .  A
C1047      C1048   1.414       .  A
C1047      N1054   1.438       .  S
C1048      C1049   1.400   1_556  A
C1048      H1053   1.083       .  S
C1049      C1050   1.412       .  A
C1050      N1051   1.446       .  S
N1051      O1055   1.263       .  A
N1051      O1056   1.262       .  A
N1054      O1057   1.263       .  A
N1054      O1058   1.263       .  A
C1059      C1060   1.399       .  A
C1059      C1064   1.399       .  A
C1059      H1066   1.084       .  S
C1060      C1061   1.419       .  A
C1061      C1062   1.412       .  A
C1061      N1068   1.442       .  S
C1062      C1063   1.403       .  A
C1062      H1067   1.083       .  S
C1063      C1064   1.414       .  A
C1064      N1065   1.439       .  S
N1065      O1069   1.263       .  A
N1065      O1070   1.262       .  A
N1068      O1071   1.262       .  A
N1068      O1072   1.263       .  A
C1073      C1074   1.395       .  A
C1073      C1078   1.386       .  A
C1073      H1080   1.084       .  S
C1074      C1075   1.419       .  A
C1075      C1076   1.403       .  A
C1075      N1082   1.441   1_455  S
C1076      C1077   1.403       .  A
C1076      H1081   1.084       .  S
C1077      C1078   1.409       .  A
C1078      N1079   1.423       .  S
N1079      O1083   1.262       .  A
N1079      O1084   1.260       .  A
N1082      O1085   1.263       .  A
N1082      O1086   1.263       .  A
C1087      C1088   1.416       .  A
C1087      C1092   1.413       .  A
C1087      H1094   1.081       .  S
C1088      C2367   1.514   1_455  S
C1088      C1089   1.415       .  A
C1089      C1090   1.408       .  A
C1089      N2560   1.439   1_455  S
C1090      C1091   1.415       .  A
C1090      H1095   1.083       .  S
C1091      C1092   1.415       .  A
C1092      N1093   1.437       .  S
N1093      O1097   1.263       .  A
N1093      O1098   1.262       .  A
N1096      C2553   1.439       .  S
N1096      O1099   1.263       .  A
N1096      O2564   1.263       .  A
O1100      N2560   1.263       .  A
C1101      C1102   1.402       .  A
C1101      C1106   1.407       .  A
C1101      H1108   1.084       .  S
C1102      C1103   1.416   1_556  A
C1103      C1104   1.403       .  A
C1103      N1110   1.444       .  S
C1104      C1105   1.405       .  A
C1104      H1109   1.083       .  S
C1105      C1106   1.420   1_554  A
C1106      N1107   1.439       .  S
N1107      O1111   1.263       .  A
N1107      O1112   1.262       .  A
N1110      O1113   1.262       .  A
N1110      O1114   1.263       .  A
C1115      C1116   1.405       .  A
C1115      C1120   1.404       .  A
C1115      H1122   1.084       .  S
C1116      C1117   1.409       .  A
C1117      C1118   1.393       .  A
C1117      N1124   1.435       .  S
C1118      C1119   1.405       .  A
C1118      H1123   1.083   1_554  S
C1119      C1120   1.416       .  A
C1120      N1121   1.437       .  S
N1121      O1125   1.263       .  A
N1121      O1126   1.262   1_565  A
N1124      O1127   1.261       .  A
N1124      O1128   1.263   1_554  A
C1129      C1130   1.406       .  A
C1129      C1134   1.397       .  A
C1129      H1136   1.083       .  S
C1130      C1131   1.415       .  A
C1131      C1132   1.407       .  A
C1131      N1138   1.435       .  S
C1132      C1133   1.403       .  A
C1132      H1137   1.084       .  S
C1133      C1134   1.412       .  A
C1134      N1135   1.442       .  S
N1135      O1139   1.263       .  A
N1135      O1140   1.262       .  A
N1138      O1141   1.262       .  A
N1138      O1142   1.262       .  A
C1143      C1144   1.409       .  A
C1143      C1148   1.402       .  A
C1143      H1150   1.084       .  S
C1144      C1145   1.415       .  A
C1145      C1146   1.402       .  A
C1145      N1152   1.436       .  S
C1146      C1147   1.407       .  A
C1146      H1151   1.083       .  S
C1147      C1148   1.412       .  A
C1148      N1149   1.441       .  S
N1149      O1153   1.263       .  A
N1149      O1154   1.263       .  A
N1152      O1155   1.261       .  A
N1152      O1156   1.262       .  A
C1157      C1158   1.404       .  A
C1157      C1162   1.406       .  A
C1157      H1164   1.083       .  S
C1158      C1159   1.414       .  A
C1159      C1160   1.410       .  A
C1159      N1166   1.443       .  S
C1160      C1161   1.408       .  A
C1160      H1165   1.084       .  S
C1161      C1162   1.415       .  A
C1162      N1163   1.441       .  S
N1163      O1167   1.263       .  A
N1163      O1168   1.262       .  A
N1166      O1169   1.263       .  A
N1166      O1170   1.263       .  A
C1171      C1172   1.393       .  A
C1171      C1176   1.386       .  A
C1171      H1178   1.084       .  S
C1172      C1173   1.427       .  A
C1173      C1174   1.419       .  A
C1174      C1175   1.403       .  A
C1174      H1179   1.083       .  S
C1175      C1176   1.412       .  A
C1176      N1177   1.424       .  S
N1177      O1181   1.262       .  A
N1177      O1182   1.260       .  A
N1180      O1183   1.263       .  A
N1180      O1184   1.263       .  A
C1185      C1186   1.421       .  A
C1185      C1190   1.436       .  A
C1185      H1192   1.082       .  S
C1186      C1187   1.407       .  A
C1187      C1188   1.391       .  A
C1187      N1194   1.432       .  S
C1188      C1189   1.409       .  A
C1188      H1193   1.073       .  S
C1189      C1190   1.425       .  A
C1190      N1191   1.443       .  S
N1191      O1195   1.263       .  A
N1191      O1196   1.261       .  A
N1194      O1197   1.262       .  A
N1194      O1198   1.263       .  A
C1199      C1200   1.387       .  A
C1199      C1204   1.386       .  A
C1199      H1206   1.085       .  S
C1200      C1201   1.410       .  A
C1201      C1202   1.395       .  A
C1201      N1208   1.434       .  S
C1202      C1203   1.402       .  A
C1202      H1207   1.084       .  S
C1203      C1204   1.426       .  A
C1204      N1205   1.433       .  S
N1205      O1209   1.262       .  A
N1205      O1210   1.262       .  A
N1208      O1211   1.262   1_455  A
N1208      O1212   1.262       .  A
C1213      C1214   1.410       .  A
C1213      C1218   1.403       .  A
C1213      H1220   1.073       .  S
C1214      C1215   1.419       .  A
C1215      C1216   1.409       .  A
C1215      N1222   1.430       .  S
C1216      C1217   1.407       .  A
C1216      H1221   1.083       .  S
C1217      C1218   1.411       .  A
C1218      N1219   1.432       .  S
N1219      O1223   1.261       .  A
N1219      O1224   1.262       .  A
N1222      O1225   1.263       .  A
N1222      O1226   1.264       .  A
C1227      C1228   1.399       .  A
C1227      C1232   1.400       .  A
C1227      H2698   1.083       .  S
C1228      C1229   1.416       .  A
C1229      C1230   1.393       .  A
C1229      N1236   1.443       .  S
C1230      C1231   1.400       .  A
C1230      H1235   1.084       .  S
C1231      C1232   1.415       .  A
C1232      N2697   1.439       .  S
N1233      C2696   1.439       .  S
N1233      O1237   1.262       .  A
N1233      O1238   1.263       .  A
H1234      C2691   1.083       .  S
N1236      O1239   1.263       .  A
N1236      O1240   1.262       .  A
C1241      C1242   1.406       .  A
C1241      C1246   1.410       .  A
C1241      H1248   1.077       .  S
C1242      C1243   1.422       .  A
C1243      C1244   1.411       .  A
C1243      N1250   1.440       .  S
C1244      C1245   1.403       .  A
C1244      H1249   1.084       .  S
C1245      C1246   1.417       .  A
C1246      N1247   1.442       .  S
N1247      O1251   1.263       .  A
N1247      O1252   1.262       .  A
N1250      O1253   1.261       .  A
N1250      O1254   1.263       .  A
C1255      C1256   1.402       .  A
C1255      C1260   1.407       .  A
C1255      H1262   1.081       .  S
C1256      C1257   1.410       .  A
C1257      C1258   1.407       .  A
C1258      C1259   1.413       .  A
C1258      H1263   1.080       .  S
C1259      C1260   1.432       .  A
C1260      N1261   1.434       .  S
N1261      O1265   1.263       .  A
N1261      O1266   1.263       .  A
N1264      O1267   1.261   1_565  A
C1269      C1274   1.407       .  A
C1269      H1276   1.083       .  S
C1270      C1271   1.410       .  A
C1271      C1272   1.396       .  A
C1271      N1278   1.439       .  S
C1272      C1273   1.410       .  A
C1272      H1277   1.084       .  S
C1274      N1275   1.428       .  S
N1275      O1279   1.262       .  A
N1275      O1280   1.261       .  A
N1278      O1281   1.262       .  A
N1278      O1282   1.263       .  A
C1283      C1284   1.399       .  A
C1283      C1288   1.398       .  A
C1283      H1290   1.084       .  S
C1284      C2749   1.410       .  A
C1285      C2748   1.410   1_455  A
C1285      C1286   1.392       .  A
C1285      N1292   1.441       .  S
C1286      C2751   1.405   1_455  A
C1286      H1291   1.082       .  S
C1287      C2750   1.405       .  A
C1287      C1288   1.409       .  A
C1288      N1289   1.430       .  S
N1289      O1293   1.261       .  A
N1289      O1294   1.262       .  A
N1292      O1295   1.262       .  A
N1292      O1296   1.263       .  A
C1297      C1298   1.408       .  A
C1297      C1302   1.403       .  A
C1297      H1304   1.083       .  S
C1298      C1299   1.422       .  A
C1299      C1300   1.411       .  A
C1299      N1306   1.435       .  S
C1300      C1301   1.403       .  A
C1300      H1305   1.084       .  S
C1301      C1302   1.414       .  A
C1302      N1303   1.439       .  S
N1303      O1307   1.263       .  A
N1303      O1308   1.263       .  A
N1306      O1309   1.262       .  A
N1306      O1310   1.263       .  A
C1311      C1312   1.402       .  A
C1311      C1316   1.395       .  A
C1311      H1318   1.085       .  S
C1312      C1313   1.411       .  A
C1313      C1314   1.406       .  A
C1313      N1320   1.443   1_556  S
C1314      C1315   1.409       .  A
C1314      H1319   1.083       .  S
C1315      C1316   1.412       .  A
C1316      N1317   1.438       .  S
N1317      O1321   1.263       .  A
N1317      O1322   1.263       .  A
N1320      O1323   1.263       .  A
N1320      O1324   1.263       .  A
C1325      C1326   1.396       .  A
C1325      C1330   1.390       .  A
C1325      H1332   1.083       .  S
C1326      C1327   1.410       .  A
C1327      C1328   1.389       .  A
C1327      N1334   1.433       .  S
C1328      C1329   1.398       .  A
C1328      H2797   1.084       .  S
C1329      C2257   1.447       .  S
C1329      C1330   1.411       .  A
C1330      N1331   1.440       .  S
N1331      O1335   1.261       .  A
N1331      O1336   1.262       .  A
H1333      C2792   1.084   1_455  S
N1334      O1337   1.262       .  A
N1334      O1338   1.262       .  A
C1339      C1340   1.402       .  A
C1339      C1344   1.413       .  A
C1339      H1346   1.083       .  S
C1340      C1341   1.419       .  A
C1341      C1342   1.408       .  A
C1341      N1348   1.449       .  S
C1342      C1343   1.405       .  A
C1342      H1347   1.084       .  S
C1343      C1344   1.425       .  A
C1344      N1345   1.448       .  S
N1345      O1349   1.263       .  A
N1345      O1350   1.260       .  A
N1348      O1351   1.263       .  A
N1348      O1352   1.262       .  A
C1353      C1354   1.405       .  A
C1353      C1358   1.402       .  A
C1353      H1360   1.083       .  S
C1354      C1355   1.413       .  A
C1355      C1356   1.397       .  A
C1355      N1362   1.438       .  S
C1356      C1357   1.403       .  A
C1356      H1361   1.084       .  S
C1357      C1358   1.418       .  A
C1358      N1359   1.444       .  S
N1359      O1363   1.262   1_556  A
N1359      O1364   1.263       .  A
N1362      O1365   1.263       .  A
N1362      O1366   1.262       .  A
C1367      C1368   1.411       .  A
C1367      C1372   1.434       .  A
C1367      H1374   1.083       .  S
C1368      C1369   1.433       .  A
C1369      C1370   1.396       .  A
C1369      N1376   1.432       .  S
C1370      C1371   1.391       .  A
C1370      H1375   1.085       .  S
C1371      C1372   1.431       .  A
C1372      N1373   1.446   1_556  S
N1373      O1377   1.263       .  A
N1373      O1378   1.262       .  A
N1376      O1379   1.260       .  A
N1376      O1380   1.263       .  A
C1381      C1382   1.414       .  A
C1381      C1386   1.422       .  A
C1381      H1388   1.083       .  S
C1382      C1383   1.409       .  A
C1383      C1384   1.394       .  A
C1383      N1390   1.434       .  S
C1384      C1385   1.406       .  A
C1384      H1389   1.084       .  S
C1385      C1386   1.418       .  A
C1386      N1387   1.441       .  S
N1387      O1391   1.263       .  A
N1387      O1392   1.262       .  A
N1390      O1393   1.263       .  A
N1390      O1394   1.262       .  A
C1395      C1396   1.409       .  A
C1395      C1400   1.397       .  A
C1395      H1402   1.085       .  S
C1396      C1397   1.419       .  A
C1397      C1398   1.419       .  A
C1397      N1404   1.439       .  S
C1398      C1399   1.408       .  A
C1398      H1403   1.083       .  S
C1399      C1400   1.413       .  A
C1400      N1401   1.443       .  S
N1401      O1405   1.263       .  A
N1401      O1406   1.261       .  A
N1404      O1407   1.261       .  A
N1404      O1408   1.263       .  A
C1409      C1410   1.412       .  A
C1409      C1414   1.398       .  A
C1409      H1416   1.084       .  S
C1410      C1411   1.408       .  A
C1411      C1412   1.408       .  A
C1411      N1418   1.435       .  S
C1412      C1413   1.423       .  A
C1412      H1417   1.080       .  S
C1413      C1414   1.415       .  A
C1414      N1415   1.434       .  S
N1415      O1419   1.263       .  A
N1418      O1421   1.261       .  A
N1418      O1422   1.263       .  A
C1423      C1424   1.401       .  A
C1423      C1428   1.399       .  A
C1423      H1430   1.084       .  S
C1424      C1425   1.412       .  A
C1425      C1426   1.399       .  A
C1425      N1432   1.433       .  S
C1426      C1427   1.403       .  A
C1426      H1431   1.084       .  S
C1427      C1428   1.418       .  A
C1428      N1429   1.439       .  S
N1429      O1433   1.263   1_556  A
N1429      O1434   1.263   1_556  A
N1432      O1435   1.262       .  A
N1432      O1436   1.262       .  A
C1437      C1438   1.393       .  A
C1437      C1442   1.400       .  A
C1437      H1444   1.084       .  S
C1438      C1439   1.425       .  A
C1439      C1440   1.409       .  A
C1439      N1446   1.441       .  S
C1440      C1441   1.397       .  A
C1440      H1445   1.082       .  S
C1441      C1442   1.422       .  A
C1442      N1443   1.436       .  S
N1443      O1447   1.263       .  A
N1443      O1448   1.259       .  A
N1446      O1449   1.263       .  A
N1446      O1450   1.263       .  A
C1451      C1452   1.406       .  A
C1451      C1456   1.407       .  A
C1451      H1458   1.083       .  S
C1452      C1453   1.429       .  A
C1453      C1454   1.394       .  A
C1453      N1460   1.433       .  S
C1454      C1455   1.390       .  A
C1454      H1459   1.085       .  S
C1455      C1456   1.416       .  A
C1456      N1457   1.443       .  S
N1457      O1461   1.263       .  A
N1457      O1462   1.262       .  A
N1460      O1463   1.262       .  A
N1460      O1464   1.262       .  A
O1465     Zr1501   2.377       .  S
O1465      C1476   1.278       .  A
O1466     Zr1500   2.412       .  S
O1466      C1477   1.289       .  A
O1467     Zr1473   2.386       .  S
O1467      C1478   1.283       .  A
O1468     Zr1473   2.379       .  S
O1468      C1479   1.281       .  A
O1469     Zr1503   2.519       .  S
O1469      C1479   1.307       .  A
O1470     Zr1502   2.498       .  S
O1470      C1478   1.300       .  A
O1471     Zr1473   2.449       .  S
O1471      C1477   1.294       .  A
O1472     Zr1473   2.486       .  S
O1472      C1476   1.301       .  A
Zr1473     O1474   2.347       .  S
Zr1473     O1475   2.319       .  S
Zr1473     O1483   2.316       .  S
Zr1473     O1481   2.338       .  S
O1474     Zr1500   2.369       .  S
O1474     Zr1503   2.337       .  S
O1475     Zr1501   2.357       .  S
O1475     Zr1502   2.334       .  S
C1476      C2184   1.493       .  S
C1477      C2156   1.469       .  S
C1478      C2142   1.492       .  S
C1479      C2173   1.477       .  S
H1480      O1481   0.964       .  S
O1481     Zr1500   2.316       .  S
O1481     Zr1502   2.322       .  S
H1482      O1483   0.958       .  S
O1483     Zr1501   2.308       .  S
O1483     Zr1503   2.334       .  S
O1484     Zr1500   2.418       .  S
O1484      C1507   1.289       .  A
O1485     Zr1501   2.399       .  S
O1485      C1508   1.284       .  A
O1486     Zr1502   2.352       .  S
O1486      C1509   1.276       .  A
O1487     Zr1503   2.442       .  S
O1487      C1510   1.296       .  A
O1488     Zr1503   2.374       .  S
O1488      C1511   1.284       .  A
O1489     Zr1502   2.369       .  S
O1489      C1512   1.281       .  A
O1490     Zr1504   2.379       .  S
O1490      C1513   1.278       .  A
O1491     Zr1504   2.406       .  S
O1491      C1514   1.287       .  A
O1492     Zr1502   2.475       .  S
O1492      C1513   1.296       .  A
O1493     Zr1503   2.496       .  S
O1493      C1514   1.301       .  A
O1494     Zr1500   2.585       .  S
O1494      C1509   1.319       .  A
O1495     Zr1501   2.445       .  S
O1495      C1512   1.295       .  A
O1496     Zr1501   2.515       .  S
O1496      C1511   1.305       .  A
O1497     Zr1500   2.467       .  S
O1497      C1510   1.298       .  A
O1498     Zr1504   2.447       .  S
O1498      C1507   1.295       .  A
O1499     Zr1504   2.497       .  S
O1499      C1508   1.302       .  A
Zr1500     O1506   2.312       .  S
Zr1500     O1518   2.379       .  S
Zr1501     O1505   2.320       .  S
Zr1501     O1516   2.343       .  S
Zr1502     O1506   2.318       .  S
Zr1502     O1516   2.353       .  S
Zr1503     O1505   2.345       .  S
Zr1503     O1518   2.354       .  S
Zr1504     O1505   2.318       .  S
Zr1504     O1506   2.346       .  S
Zr1504     O1518   2.351       .  S
Zr1504     O1516   2.327       .  S
C1507      C2047   1.475       .  S
C1508      C2075   1.486       .  S
C1509      C2100   1.524       .  S
C1510      C2030   1.499       .  S
C1511      C2128   1.498       .  S
C1512      C2058   1.447       .  S
C1513      C2086   1.472       .  S
C1514      C2117   1.492       .  S
H1515      O1516   0.964       .  S
H1517      O1518   0.966       .  S
C1519      C1946   1.552       .  S
C1519      C1520   1.442       .  A
C1519      C2256   1.439       .  A
C1520      C2019   1.490       .  S
C1521      C2002   1.492   1_545  S
C1521      C1522   1.404       .  A
C1522      C1974   1.517       .  S
C1522      C1523   1.415       .  A
C1523      C1960   1.471       .  S
C1524      C1988   1.507       .  S
C1524      C2251   1.439   1_545  A
C1525      C1526   1.394       .  A
C1525      C1530   1.386       .  A
C1526      C1527   1.400       .  A
C1526      H1531   1.085       .  S
C1527      C1963   1.468       .  S
C1527      C1528   1.401       .  A
C1528      C1529   1.399       .  A
C1528      H1532   1.084       .  S
C1529      C1932   1.450       .  S
C1529      C1530   1.384       .  A
C1530      H1533   1.085       .  S
C1534      C1918   1.519       .  S
C1534      C1535   1.429       .  A
C1534      C2271   1.418       .  A
C1535      C2268   1.415       .  A
C1535      H1540   1.082       .  S
C1536      C2005   1.499       .  S
C1536      C2267   1.415       .  A
C1536      C1537   1.393   1_565  A
C1537      C1538   1.386   1_545  A
C1537      H1541   1.085       .  S
C1538      C2170   1.483   1_565  S
C1538      C1539   1.413       .  A
C1539      C2266   1.418       .  A
C1539      H1542   1.083       .  S
C1543      C2187   1.469       .  S
C1543      C1544   1.399       .  A
C1543      C1548   1.391       .  A
C1544      C1545   1.409       .  A
C1544      H1549   1.074       .  S
C1545      C1991   1.525       .  S
C1545      C1546   1.421       .  A
C1546      C1547   1.417       .  A
C1546      H2282   1.079   1_545  S
C1547      C2636   1.491   1_545  S
C1547      C1548   1.396       .  A
C1548      H1551   1.084       .  S
H1550      C2278   1.079       .  S
C1552      C1893   1.488       .  S
C1552      C1557   1.399       .  A
C1553      C1554   1.417       .  A
C1553      H1558   1.083       .  S
C1554      C2072   1.485       .  S
C1554      C1555   1.396       .  A
C1555      C1556   1.391       .  A
C1555      H1559   1.084       .  S
C1556      C2016   1.458       .  S
C1557      H1560   1.085       .  S
C1561      C2131   1.485       .  S
C1561      C1562   1.400       .  A
C1561      C1566   1.413       .  A
C1562      C1563   1.401       .  A
C1562      H1567   1.084       .  S
C1563      C1879   1.485       .  S
C1563      C1564   1.406       .  A
C1564      C1565   1.403       .  A
C1564      H1568   1.084       .  S
C1565      C1977   1.491       .  S
C1565      C1566   1.414       .  A
C1566      H1569   1.083       .  S
C1570      C2114   1.500       .  S
C1570      C1571   1.418       .  A
C1570      C1575   1.407       .  A
C1571      C1572   1.414       .  A
C1571      H1576   1.082       .  S
C1572      C1949   1.501       .  S
C1572      C1573   1.401       .  A
C1573      C1574   1.395       .  A
C1573      H1577   1.084       .  S
C1574      C1865   1.472       .  S
C1574      C1575   1.404       .  A
C1575      H1578   1.083       .  S
O1579     Zr1615   2.364       .  S
O1579      C1590   1.276       .  A
O1580     Zr1614   2.445       .  S
O1580      C1591   1.295       .  A
O1581     Zr1587   2.381       .  S
O1581      C1592   1.280       .  A
O1582     Zr1587   2.409       .  S
O1582      C1593   1.287       .  A
O1583     Zr1617   2.494       .  S
O1583      C1593   1.301       .  A
O1584     Zr1616   2.501       .  S
O1584      C1592   1.302       .  A
O1585     Zr1587   2.414       .  S
O1585      C1591   1.288       .  A
O1586     Zr1587   2.456       .  S
O1586      C1590   1.295       .  A
Zr1587     O1588   2.334       .  S
Zr1587     O1589   2.331       .  S
Zr1587     O1597   2.321       .  S
Zr1587     O1595   2.354       .  S
O1588     Zr1614   2.337       .  S
O1588     Zr1617   2.335       .  S
O1589     Zr1615   2.312       .  S
O1589     Zr1616   2.342       .  S
C1590      C1935   1.471       .  S
C1591      C1809   1.471       .  S
C1592      C1890   1.475       .  S
C1593      C1823   1.511       .  S
H1594      O1595   0.965       .  S
O1595     Zr1614   2.348       .  S
O1595     Zr1616   2.337       .  S
H1596      O1597   0.965       .  S
O1597     Zr1615   2.361       .  S
O1597     Zr1617   2.346       .  S
O1598     Zr1614   2.428       .  S
O1598      C1621   1.291       .  A
O1599     Zr1615   2.392       .  S
O1599      C1622   1.286       .  A
O1600     Zr1616   2.425       .  S
O1600      C1623   1.290       .  A
O1601     Zr1617   2.409       .  S
O1601      C1624   1.287       .  A
O1602     Zr1617   2.415       .  S
O1602      C1625   1.291       .  A
O1603     Zr1616   2.383       .  S
O1603      C1626   1.280       .  A
O1604     Zr1618   2.414       .  S
O1604      C1627   1.289       .  A
O1605     Zr1618   2.401       .  S
O1605      C1628   1.285       .  A
O1606     Zr1616   2.490       .  S
O1606      C1627   1.300       .  A
O1607     Zr1617   2.484       .  S
O1607      C1628   1.299       .  A
O1608     Zr1614   2.439       .  S
O1608      C1623   1.294       .  A
O1609     Zr1615   2.559       .  S
O1609      C1626   1.312       .  A
O1610     Zr1615   2.466       .  S
O1610      C1625   1.297       .  A
O1611     Zr1614   2.489       .  S
O1611      C1624   1.301       .  A
O1612     Zr1618   2.455       .  S
O1612      C1621   1.297       .  A
O1613     Zr1618   2.481       .  S
O1613      C1622   1.299       .  A
Zr1614     O1620   2.353       .  S
Zr1614     O1632   2.334       .  S
Zr1615     O1619   2.353       .  S
Zr1615     O1630   2.316       .  S
Zr1616     O1620   2.335       .  S
Zr1616     O1630   2.340       .  S
Zr1617     O1619   2.344       .  S
Zr1617     O1632   2.337       .  S
Zr1618     O1619   2.320       .  S
Zr1618     O1620   2.337       .  S
Zr1618     O1632   2.346       .  S
Zr1618     O1630   2.340       .  S
C1621      C1837   1.489       .  S
C1622      C1862   1.481       .  S
C1623      C1848   1.477       .  S
C1624      C1781   1.481       .  S
C1625      C1876   1.483       .  S
C1626      C1921   1.517       .  S
C1627      C1907   1.486       .  S
C1628      C1795   1.472       .  S
H1629      O1630   0.962       .  S
H1631      O1632   0.964       .  S
C1633      C2103   1.506   1_554  S
C1633      C1634   1.416       .  A
C1633      C1638   1.413       .  A
C1634      C1635   1.421       .  A
C1634      H1639   1.082       .  S
C1635      C1636   1.406       .  A
C1636      C1637   1.403       .  A
C1637      C1764   1.496       .  S
C1637      C1638   1.412       .  A
C1638      H1641   1.084   1_554  S
C1642      C1767   1.506       .  S
C1642      C2375   1.411   1_545  A
C1643      C1694   1.465       .  S
C1643      C2374   1.411       .  A
C1643      C1644   1.407       .  A
C1644      C1750   1.509       .  S
C1645      C1736   1.498       .  S
C1645      C1646   1.427       .  A
C1646      C1725   1.492       .  S
C1646      C2379   1.434       .  A
C1647      C1708   1.502       .  S
C1647      C2378   1.434   1_545  A
C1648      C1851   1.483       .  S
C1648      C1649   1.400   1_554  A
C1648      C1653   1.404       .  A
C1649      C2382   1.396       .  A
C1649      H1654   1.083       .  S
C1650      C2159   1.481       .  S
C1650      C2381   1.396       .  A
C1650      C1651   1.403       .  A
C1651      C2384   1.403       .  A
C1651      H1655   1.084       .  S
C1652      C1722   1.474       .  S
C1652      C2383   1.403       .  A
C1652      C1653   1.404   1_556  A
C1653      H1656   1.084       .  S
C1657      C1806   1.471       .  S
C1657      C1662   1.407       .  A
C1658      C1659   1.389       .  A
C1658      H1663   1.085       .  S
C1659      C2089   1.476       .  S
C1659      C1660   1.404       .  A
C1660      C1661   1.414       .  A
C1660      H1664   1.083       .  S
C1661      C1739   1.503       .  S
C1662      H1665   1.082       .  S
C1666      C1778   1.529       .  S
C1666      C1667   1.421       .  A
C1666      C1671   1.424       .  A
C1667      C1668   1.407       .  A
C1667      H1672   1.078       .  S
C1668      C2033   1.488       .  S
C1668      C1669   1.397       .  A
C1669      C1670   1.399       .  A
C1669      H1673   1.084       .  S
C1670      C1711   1.493       .  S
C1670      C1671   1.408       .  A
C1671      H1674   1.078       .  S
C1675      C2877   1.513       .  S
C1675      C1676   1.422       .  A
C1675      C1680   1.406       .  A
C1676      C1677   1.411       .  A
C1676      H1681   1.080       .  S
C1677      C1834   1.478       .  S
C1677      C1678   1.392       .  A
C1678      C1679   1.390       .  A
C1678      H1682   1.081       .  S
C1679      C1697   1.482       .  S
C1679      C1680   1.401       .  A
C1680      H2415   1.077       .  S
H1683      C2412   1.077   1_545  S
C1684      C2044   1.470   1_554  S
C1684      C1685   1.401       .  A
C1684      C1689   1.396       .  A
C1685      C1686   1.402       .  A
C1685      H1690   1.084       .  S
C1686      C1792   1.480       .  S
C1686      C1687   1.411       .  A
C1687      C1688   1.406       .  A
C1687      H1691   1.084       .  S
C1688      C1753   1.478       .  S
C1688      C1689   1.397       .  A
C1689      H1692   1.086   1_554  S
C1693      C1694   1.393       .  A
C1693      C1698   1.387       .  A
C1693      H1700   1.085   1_556  S
C1694      C1695   1.417       .  A
C1695      C1696   1.399       .  A
C1695      N2434   1.447       .  S
C1696      C1697   1.404       .  A
C1696      H2433   1.083       .  S
C1697      C1698   1.418       .  A
C1698      N1699   1.428   1_556  S
N1699      O1703   1.261       .  A
N1699      O1704   1.263       .  A
H1701      C2428   1.083       .  S
N1702      C2427   1.447       .  S
N1702      O1705   1.262       .  A
N1702      O1706   1.263       .  A
C1707      C1708   1.402       .  A
C1707      C1712   1.400       .  A
C1707      H1714   1.076       .  S
C1708      C1709   1.421       .  A
C1709      C1710   1.414       .  A
C1709      N1716   1.442   1_556  S
C1710      C1711   1.407       .  A
C1710      H1715   1.083   1_556  S
C1711      C1712   1.412       .  A
C1712      N1713   1.438       .  S
N1713      O1717   1.263       .  A
N1713      O1718   1.262       .  A
N1716      O1719   1.262       .  A
N1716      O1720   1.263       .  A
C1721      C1722   1.398       .  A
C1721      C1726   1.400       .  A
C1721      H1728   1.084       .  S
C1722      C2455   1.413   1_556  A
C1723      C2454   1.413   1_554  A
C1723      C1724   1.405       .  A
C1723      N1730   1.442       .  S
C1724      C2457   1.404   1_554  A
C1724      H1729   1.080       .  S
C1725      C2456   1.404   1_556  A
C1725      C1726   1.417       .  A
C1726      N1727   1.434       .  S
N1727      O1731   1.261       .  A
N1727      O1732   1.263       .  A
N1730      O1733   1.263       .  A
N1730      O1734   1.263       .  A
C1735      C1736   1.405   1_554  A
C1735      C1740   1.409       .  A
C1735      H1742   1.084       .  S
C1737      C1738   1.402       .  A
C1737      N1744   1.445       .  S
C1738      C1739   1.405       .  A
C1738      H1743   1.081       .  S
C1740      N1741   1.438       .  S
N1741      O1745   1.263       .  A
N1741      O1746   1.263       .  A
N1744      O1747   1.259       .  A
N1744      O1748   1.263       .  A
C1749      C1750   1.410   1_554  A
C1749      C1754   1.409       .  A
C1749      H1756   1.083       .  S
C1750      C1751   1.422       .  A
C1751      C1752   1.401       .  A
C1751      N1758   1.437       .  S
C1752      C1753   1.401   1_556  A
C1752      H1757   1.085       .  S
C1753      C1754   1.413       .  A
C1754      N1755   1.445       .  S
N1755      O1759   1.263       .  A
N1755      O1760   1.262       .  A
N1758      O1761   1.257       .  A
N1758      O1762   1.263       .  A
C1763      C1764   1.406   1_556  A
C1763      C1768   1.415       .  A
C1763      H1770   1.083       .  S
C1764      C1765   1.415       .  A
C1766      H1771   1.084       .  S
C1767      C1768   1.422       .  A
C1768      N1769   1.441       .  S
N1769      O1773   1.263       .  A
N1769      O1774   1.259   1_655  A
N1772      O1776   1.263       .  A
C1777      C1778   1.414       .  A
C1777      C1782   1.408   1_556  A
C1777      H1784   1.075       .  S
C1778      C1779   1.429       .  A
C1779      C1780   1.414       .  A
C1779      N1786   1.438       .  S
C1780      C1781   1.400   1_556  A
C1780      H1785   1.083       .  S
C1781      C1782   1.412       .  A
C1782      N1783   1.446       .  S
N1783      O1787   1.263       .  A
N1783      O1788   1.262       .  A
N1786      O1789   1.263       .  A
N1786      O1790   1.263       .  A
C1791      C1792   1.399       .  A
C1791      C1796   1.399       .  A
C1791      H1798   1.084       .  S
C1792      C1793   1.419       .  A
C1793      C1794   1.412       .  A
C1793      N1800   1.442       .  S
C1794      C1795   1.403       .  A
C1794      H1799   1.083       .  S
C1795      C1796   1.414       .  A
C1796      N1797   1.439       .  S
N1797      O1801   1.263       .  A
N1797      O1802   1.262       .  A
N1800      O1803   1.262       .  A
N1800      O1804   1.263       .  A
C1805      C1806   1.395       .  A
C1805      C1810   1.386       .  A
C1805      H1812   1.084       .  S
C1806      C1807   1.419       .  A
C1807      C1808   1.403       .  A
C1807      N1814   1.441       .  S
C1808      C1809   1.403       .  A
C1808      H1813   1.084       .  S
C1809      C1810   1.409       .  A
C1810      N1811   1.423       .  S
N1811      O1815   1.262       .  A
N1811      O1816   1.260       .  A
N1814      O1817   1.263       .  A
N1814      O1818   1.263       .  A
C1819      C1820   1.416       .  A
C1819      C1824   1.413       .  A
C1819      H1826   1.081       .  S
C1820      C1821   1.415       .  A
C1821      C1822   1.408       .  A
C1822      C1823   1.415       .  A
C1822      H1827   1.083       .  S
C1823      C1824   1.415       .  A
C1824      N1825   1.437       .  S
N1825      O1829   1.263       .  A
N1825      O1830   1.262       .  A
N1828      O1831   1.263       .  A
C1833      C1834   1.402       .  A
C1833      C1838   1.407       .  A
C1833      H1840   1.084       .  S
C1834      C1835   1.416   1_556  A
C1835      C1836   1.403       .  A
C1835      N1842   1.444       .  S
C1836      C1837   1.405       .  A
C1836      H1841   1.083       .  S
C1837      C1838   1.420   1_554  A
C1838      N1839   1.439       .  S
N1839      O1843   1.263       .  A
N1839      O1844   1.262       .  A
N1842      O1845   1.262       .  A
N1842      O1846   1.263       .  A
C1847      C1848   1.405       .  A
C1847      C1852   1.404       .  A
C1847      H1854   1.084       .  S
C1848      C1849   1.409       .  A
C1849      C1850   1.393       .  A
C1849      N1856   1.435       .  S
C1850      C1851   1.405       .  A
C1850      H1855   1.083   1_554  S
C1851      C1852   1.416       .  A
C1852      N1853   1.437       .  S
N1853      O1857   1.263       .  A
N1853      O1858   1.262       .  A
N1856      O1859   1.261       .  A
N1856      O1860   1.263   1_554  A
C1861      C1862   1.406       .  A
C1861      C1866   1.397       .  A
C1861      H1868   1.083       .  S
C1862      C1863   1.415       .  A
C1863      C1864   1.407       .  A
C1863      N1870   1.435       .  S
C1864      C1865   1.403       .  A
C1864      H1869   1.084       .  S
C1865      C1866   1.412       .  A
C1866      N1867   1.442       .  S
N1867      O1871   1.263       .  A
N1867      O1872   1.262       .  A
N1870      O1873   1.262       .  A
N1870      O1874   1.262       .  A
C1875      C1876   1.409       .  A
C1875      C1880   1.402       .  A
C1875      H1882   1.084       .  S
C1876      C1877   1.415       .  A
C1877      C1878   1.402       .  A
C1877      N1884   1.436       .  S
C1878      C1879   1.407       .  A
C1878      H1883   1.083       .  S
C1879      C1880   1.412       .  A
C1880      N1881   1.441       .  S
N1881      O1885   1.263       .  A
N1881      O1886   1.263       .  A
N1884      O1887   1.261       .  A
N1884      O1888   1.262       .  A
C1889      C1890   1.404       .  A
C1889      C1894   1.406       .  A
C1889      H1896   1.083       .  S
C1890      C1891   1.414       .  A
C1891      C1892   1.410       .  A
C1891      N1898   1.443       .  S
C1892      C1893   1.408       .  A
C1892      H1897   1.084       .  S
C1893      C1894   1.415       .  A
C1894      N1895   1.441       .  S
N1895      O1899   1.263       .  A
N1895      O1900   1.262       .  A
N1898      O1901   1.263       .  A
N1898      O1902   1.263       .  A
C1903      C1904   1.393       .  A
C1903      C1908   1.386       .  A
C1903      H1910   1.084       .  S
C1904      C2279   1.491       .  S
C1904      C1905   1.427       .  A
C1905      C1906   1.419       .  A
C1905      N2644   1.440       .  S
C1906      C1907   1.403       .  A
C1906      H1911   1.083       .  S
C1907      C1908   1.412       .  A
C1908      N1909   1.424       .  S
N1909      O1913   1.262       .  A
N1909      O1914   1.260       .  A
N1912      C2637   1.440   1_545  S
N1912      O1915   1.263       .  A
N1912      O1916   1.263       .  A
C1917      C1918   1.421       .  A
C1917      C1922   1.436       .  A
C1917      H1924   1.082       .  S
C1918      C1919   1.407       .  A
C1919      C1920   1.391       .  A
C1919      N1926   1.432       .  S
C1920      C1921   1.409       .  A
C1920      H1925   1.073       .  S
C1921      C1922   1.425       .  A
C1922      N1923   1.443       .  S
N1923      O1927   1.263       .  A
N1923      O1928   1.261       .  A
N1926      O1929   1.262       .  A
N1926      O1930   1.263       .  A
C1931      C1932   1.386       .  A
C1931      C1936   1.386       .  A
C1931      H1938   1.085       .  S
C1932      C1933   1.410       .  A
C1933      C1934   1.395       .  A
C1933      N1940   1.434       .  S
C1934      C1935   1.402       .  A
C1934      H1939   1.084       .  S
C1935      C1936   1.426       .  A
C1936      N1937   1.433       .  S
N1937      O1941   1.262       .  A
N1937      O1942   1.262       .  A
N1940      O1943   1.262       .  A
N1940      O1944   1.262       .  A
C1945      C1946   1.410       .  A
C1945      C1950   1.403       .  A
C1945      H1952   1.073       .  S
C1946      C1947   1.419       .  A
C1947      C1948   1.409       .  A
C1947      N1954   1.430       .  S
C1948      C1949   1.407       .  A
C1948      H1953   1.083       .  S
C1949      C1950   1.411       .  A
C1950      N1951   1.432       .  S
N1951      O1955   1.261       .  A
N1951      O1956   1.262       .  A
N1954      O1957   1.263       .  A
N1954      O1958   1.264       .  A
C1959      C1960   1.399       .  A
C1959      C1964   1.400       .  A
C1960      C1961   1.416       .  A
C1961      C1962   1.393       .  A
C1961      N1968   1.443       .  S
C1962      C1963   1.400       .  A
C1962      H1967   1.084       .  S
C1963      C1964   1.415       .  A
N1965      O1969   1.262       .  A
N1965      O1970   1.263   1_455  A
N1968      O1971   1.263       .  A
N1968      O1972   1.262       .  A
C1973      C1974   1.406       .  A
C1973      C1978   1.410       .  A
C1973      H1980   1.077       .  S
C1974      C1975   1.422       .  A
C1975      C1976   1.411       .  A
C1975      N1982   1.440       .  S
C1976      C1977   1.403       .  A
C1976      H1981   1.084       .  S
C1977      C1978   1.417       .  A
C1978      N1979   1.442       .  S
N1979      O1983   1.263       .  A
N1979      O1984   1.262       .  A
N1982      O1985   1.261       .  A
N1982      O1986   1.263       .  A
C1987      C1988   1.402       .  A
C1987      C1992   1.407       .  A
C1987      H1994   1.081       .  S
C1988      C1989   1.410       .  A
C1989      C1990   1.407       .  A
C1989      N2728   1.432   1_545  S
C1990      C1991   1.413       .  A
C1990      H1995   1.080       .  S
C1991      C1992   1.432       .  A
C1992      N1993   1.434       .  S
N1993      O1997   1.263       .  A
N1993      O1998   1.263       .  A
N1996      C2721   1.432       .  S
N1996      O1999   1.261       .  A
N1996      O2732   1.262       .  A
O2000      N2728   1.262       .  A
C2001      C2734   1.405       .  A
C2001      C2006   1.407       .  A
C2001      H2008   1.083       .  S
C2002      C2733   1.405       .  A
C2002      C2003   1.410   1_565  A
C2003      C2004   1.396   1_545  A
C2003      N2010   1.439       .  S
C2004      C2005   1.410       .  A
C2004      H2009   1.084       .  S
C2005      C2738   1.414       .  A
C2006      C2737   1.414       .  A
C2006      N2007   1.428       .  S
N2007      O2011   1.262       .  A
N2007      O2012   1.261       .  A
N2010      O2013   1.262       .  A
N2010      O2014   1.263       .  A
C2015      C2016   1.399       .  A
C2015      C2020   1.398       .  A
C2015      H2022   1.084       .  S
C2017      C2018   1.392       .  A
C2017      N2024   1.441       .  S
C2018      H2023   1.082       .  S
C2019      C2020   1.409       .  A
C2020      N2021   1.430       .  S
N2021      O2025   1.261       .  A
N2021      O2026   1.262       .  A
N2024      O2027   1.262       .  A
N2024      O2028   1.263       .  A
C2029      C2030   1.408       .  A
C2029      C2034   1.403       .  A
C2029      H2036   1.083       .  S
C2030      C2031   1.422       .  A
C2031      C2032   1.411       .  A
C2031      N2038   1.435       .  S
C2032      C2033   1.403       .  A
C2032      H2037   1.084       .  S
C2033      C2034   1.414       .  A
C2034      N2035   1.439       .  S
N2035      O2039   1.263       .  A
N2035      O2040   1.263       .  A
N2038      O2041   1.262       .  A
N2038      O2042   1.263       .  A
C2043      C2044   1.402       .  A
C2043      C2048   1.394       .  A
C2043      H2050   1.085       .  S
C2044      C2045   1.411       .  A
C2045      C2046   1.406       .  A
C2045      N2052   1.443   1_556  S
C2046      C2047   1.409       .  A
C2046      H2051   1.083       .  S
C2047      C2048   1.412       .  A
C2048      N2049   1.438       .  S
N2049      O2053   1.263       .  A
N2049      O2054   1.263       .  A
N2052      O2055   1.263       .  A
N2052      O2056   1.263       .  A
C2057      C2058   1.396       .  A
C2057      C2062   1.390       .  A
C2057      H2064   1.083       .  S
C2058      C2059   1.410       .  A
C2059      C2060   1.389       .  A
C2059      N2066   1.432       .  S
C2060      C2061   1.398       .  A
C2061      C2062   1.412       .  A
C2062      N2063   1.440       .  S
N2063      O2067   1.261       .  A
N2063      O2068   1.262       .  A
N2066      O2069   1.262       .  A
N2066      O2070   1.262       .  A
C2071      C2072   1.402       .  A
C2071      C2076   1.413       .  A
C2071      H2078   1.083       .  S
C2072      C2073   1.419       .  A
C2073      C2074   1.408       .  A
C2073      N2080   1.449       .  S
C2074      C2075   1.405       .  A
C2074      H2079   1.084       .  S
C2075      C2076   1.425       .  A
C2076      N2077   1.448       .  S
N2077      O2081   1.263       .  A
N2077      O2082   1.260       .  A
N2080      O2083   1.263       .  A
N2080      O2084   1.262       .  A
C2085      C2086   1.405       .  A
C2085      C2090   1.402       .  A
C2085      H2092   1.083       .  S
C2086      C2087   1.413       .  A
C2087      C2088   1.397       .  A
C2087      N2094   1.438       .  S
C2088      C2089   1.403       .  A
C2088      H2093   1.084       .  S
C2089      C2090   1.418       .  A
C2090      N2091   1.443       .  S
N2091      O2095   1.262   1_556  A
N2091      O2096   1.263       .  A
N2094      O2097   1.263       .  A
N2094      O2098   1.262       .  A
C2099      C2100   1.411       .  A
C2099      C2104   1.434       .  A
C2099      H2106   1.083       .  S
C2100      C2101   1.433       .  A
C2101      C2102   1.396       .  A
C2101      N2108   1.432       .  S
C2102      C2103   1.391       .  A
C2102      H2107   1.085       .  S
C2103      C2104   1.431       .  A
C2104      N2105   1.446   1_556  S
N2105      O2109   1.263       .  A
N2105      O2110   1.262       .  A
N2108      O2111   1.260       .  A
N2108      O2112   1.262       .  A
C2113      C2114   1.414       .  A
C2113      C2118   1.422       .  A
C2113      H2120   1.083       .  S
C2114      C2115   1.409       .  A
C2115      C2116   1.394       .  A
C2115      N2122   1.434       .  S
C2116      C2117   1.406       .  A
C2116      H2121   1.084       .  S
C2117      C2118   1.418       .  A
C2118      N2119   1.441       .  S
N2119      O2123   1.263       .  A
N2119      O2124   1.262       .  A
N2122      O2125   1.263       .  A
N2122      O2126   1.262       .  A
C2127      C2128   1.409       .  A
C2127      C2132   1.397       .  A
C2127      H2134   1.085       .  S
C2128      C2129   1.420       .  A
C2129      C2130   1.419       .  A
C2129      N2136   1.439       .  S
C2130      C2131   1.408       .  A
C2130      H2135   1.083       .  S
C2131      C2132   1.413       .  A
C2132      N2133   1.443       .  S
N2133      O2137   1.263       .  A
N2133      O2138   1.261       .  A
N2136      O2139   1.261       .  A
N2136      O2140   1.263       .  A
C2141      C2142   1.412       .  A
C2141      C2146   1.398       .  A
C2141      H2148   1.084       .  S
C2142      C2143   1.408       .  A
C2143      C2144   1.408       .  A
C2143      N2150   1.435       .  S
C2144      C2145   1.422       .  A
C2144      H2149   1.080       .  S
C2145      C2407   1.512       .  S
C2145      C2146   1.414       .  A
C2146      N2147   1.434       .  S
N2147      O2151   1.263       .  A
N2147      O2884   1.262   1_545  A
N2150      O2153   1.261       .  A
N2150      O2154   1.263       .  A
O2152      N2879   1.262       .  A
C2155      C2156   1.401       .  A
C2155      C2160   1.399       .  A
C2155      H2162   1.084       .  S
C2156      C2157   1.412       .  A
C2157      C2158   1.399       .  A
C2157      N2164   1.433       .  S
C2158      C2159   1.403       .  A
C2158      H2163   1.084       .  S
C2159      C2160   1.418       .  A
C2160      N2161   1.439       .  S
N2161      O2165   1.263   1_556  A
N2161      O2166   1.263   1_556  A
N2164      O2167   1.262       .  A
N2164      O2168   1.262       .  A
C2169      C2170   1.393       .  A
C2169      C2174   1.400       .  A
C2169      H2176   1.084       .  S
C2170      C2171   1.425       .  A
C2171      C2172   1.409       .  A
C2171      N2178   1.441       .  S
C2172      C2173   1.397       .  A
C2172      H2177   1.082       .  S
C2173      C2174   1.422       .  A
C2174      N2175   1.436       .  S
N2175      O2179   1.263       .  A
N2175      O2180   1.259       .  A
N2178      O2181   1.263   1_545  A
N2178      O2182   1.263       .  A
C2183      C2184   1.406       .  A
C2183      C2188   1.407       .  A
C2183      H2190   1.083       .  S
C2184      C2185   1.429       .  A
C2185      C2186   1.394       .  A
C2185      N2192   1.433       .  S
C2186      C2187   1.390       .  A
C2186      H2191   1.085       .  S
C2187      C2188   1.416       .  A
C2188      N2189   1.443       .  S
N2189      O2193   1.263       .  A
N2189      O2194   1.262       .  A
N2192      O2195   1.262       .  A
N2192      O2196   1.262       .  A
O2197     Zr2233   2.378       .  S
O2197      C2208   1.278       .  A
O2198     Zr2232   2.411       .  S
O2198      C2209   1.289       .  A
O2199     Zr2205   2.386       .  S
O2199      C2210   1.283       .  A
O2200     Zr2205   2.379       .  S
O2200      C2211   1.281       .  A
O2201     Zr2235   2.519       .  S
O2201      C2211   1.307       .  A
O2202     Zr2234   2.497       .  S
O2202      C2210   1.300       .  A
O2203     Zr2205   2.449       .  S
O2203      C2209   1.294       .  A
O2204     Zr2205   2.486       .  S
O2204      C2208   1.301       .  A
Zr2205     O2206   2.347       .  S
Zr2205     O2207   2.319       .  S
Zr2205     O2215   2.315       .  S
Zr2205     O2213   2.338       .  S
O2206     Zr2232   2.369       .  S
O2206     Zr2235   2.337       .  S
O2207     Zr2233   2.357       .  S
O2207     Zr2234   2.334       .  S
C2208      C2916   1.493       .  S
C2209      C2888   1.469       .  S
C2210      C2874   1.491       .  S
C2211      C2905   1.477       .  S
H2212      O2213   0.964       .  S
O2213     Zr2232   2.316       .  S
O2213     Zr2234   2.322       .  S
H2214      O2215   0.959       .  S
O2215     Zr2233   2.308       .  S
O2215     Zr2235   2.334       .  S
O2216     Zr2232   2.418       .  S
O2216      C2239   1.289       .  A
O2217     Zr2233   2.399       .  S
O2217      C2240   1.284       .  A
O2218     Zr2234   2.352       .  S
O2218      C2241   1.276       .  A
O2219     Zr2235   2.442       .  S
O2219      C2242   1.296       .  A
O2220     Zr2235   2.374       .  S
O2220      C2243   1.284       .  A
O2221     Zr2234   2.369       .  S
O2221      C2244   1.281       .  A
O2222     Zr2236   2.379       .  S
O2222      C2245   1.278       .  A
O2223     Zr2236   2.406       .  S
O2223      C2246   1.287       .  A
O2224     Zr2234   2.475       .  S
O2224      C2245   1.296       .  A
O2225     Zr2235   2.496       .  S
O2225      C2246   1.301       .  A
O2226     Zr2232   2.585       .  S
O2226      C2241   1.319       .  A
O2227     Zr2233   2.445       .  S
O2227      C2244   1.295       .  A
O2228     Zr2233   2.514       .  S
O2228      C2243   1.305       .  A
O2229     Zr2232   2.467       .  S
O2229      C2242   1.298       .  A
O2230     Zr2236   2.447       .  S
O2230      C2239   1.295       .  A
O2231     Zr2236   2.497       .  S
O2231      C2240   1.302       .  A
Zr2232     O2238   2.312       .  S
Zr2232     O2250   2.379       .  S
Zr2233     O2237   2.320       .  S
Zr2233     O2248   2.342       .  S
Zr2234     O2238   2.318       .  S
Zr2234     O2248   2.353       .  S
Zr2235     O2237   2.345       .  S
Zr2235     O2250   2.354       .  S
Zr2236     O2237   2.318       .  S
Zr2236     O2238   2.346       .  S
Zr2236     O2250   2.351       .  S
Zr2236     O2248   2.327       .  S
C2239      C2779   1.475       .  S
C2240      C2807   1.486       .  S
C2241      C2832   1.524       .  S
C2242      C2762   1.499       .  S
C2243      C2860   1.499       .  S
C2244      C2790   1.447       .  S
C2245      C2818   1.472       .  S
C2246      C2849   1.492       .  S
H2247      O2248   0.964       .  S
H2249      O2250   0.966       .  S
C2251      C2678   1.552       .  S
C2251      C2252   1.442       .  A
C2252      C2751   1.490       .  S
C2253      C2734   1.492       .  S
C2253      C2254   1.404       .  A
C2254      C2706   1.516       .  S
C2254      C2255   1.414       .  A
C2255      C2692   1.471       .  S
C2256      C2720   1.507       .  S
C2257      C2258   1.394       .  A
C2257      C2262   1.385       .  A
C2258      C2259   1.400       .  A
C2258      H2263   1.085       .  S
C2259      C2695   1.468       .  S
C2259      C2260   1.400       .  A
C2260      C2261   1.399       .  A
C2260      H2264   1.084       .  S
C2261      C2664   1.450       .  S
C2261      C2262   1.384       .  A
C2262      H2265   1.085       .  S
C2266      C2650   1.519       .  S
C2266      C2267   1.429       .  A
C2267      H2272   1.082       .  S
C2268      C2737   1.499       .  S
C2268      C2269   1.393       .  A
C2269      C2270   1.386       .  A
C2269      H2273   1.085       .  S
C2270      C2902   1.483       .  S
C2270      C2271   1.412       .  A
C2271      H2274   1.083       .  S
C2275      C2919   1.469       .  S
C2275      C2276   1.399       .  A
C2275      C2280   1.391       .  A
C2276      C2277   1.408       .  A
C2276      H2281   1.074       .  S
C2277      C2723   1.525       .  S
C2277      C2278   1.421       .  A
C2278      C2279   1.418       .  A
C2279      C2280   1.396       .  A
C2280      H2283   1.084       .  S
C2284      C2625   1.488       .  S
C2284      C2289   1.399       .  A
C2285      C2286   1.417       .  A
C2285      H2290   1.083       .  S
C2286      C2804   1.485       .  S
C2286      C2287   1.396       .  A
C2287      C2288   1.391       .  A
C2287      H2291   1.084       .  S
C2288      C2748   1.458       .  S
C2289      H2292   1.085       .  S
C2293      C2863   1.485       .  S
C2293      C2294   1.400       .  A
C2293      C2298   1.413       .  A
C2294      C2295   1.401       .  A
C2294      H2299   1.084       .  S
C2295      C2611   1.486       .  S
C2295      C2296   1.406       .  A
C2296      C2297   1.403       .  A
C2296      H2300   1.084       .  S
C2297      C2709   1.491       .  S
C2297      C2298   1.414       .  A
C2298      H2301   1.083       .  S
C2302      C2846   1.500       .  S
C2302      C2303   1.418       .  A
C2302      C2307   1.407       .  A
C2303      C2304   1.414       .  A
C2303      H2308   1.082       .  S
C2304      C2681   1.501       .  S
C2304      C2305   1.401       .  A
C2305      C2306   1.395       .  A
C2305      H2309   1.084       .  S
C2306      C2597   1.472       .  S
C2306      C2307   1.404       .  A
C2307      H2310   1.083       .  S
O2311     Zr2347   2.364       .  S
O2311      C2322   1.276       .  A
O2312     Zr2346   2.445       .  S
O2312      C2323   1.294       .  A
O2313     Zr2319   2.381       .  S
O2313      C2324   1.280       .  A
O2314     Zr2319   2.409       .  S
O2314      C2325   1.287       .  A
O2315     Zr2349   2.494       .  S
O2315      C2325   1.302       .  A
O2316     Zr2348   2.501       .  S
O2316      C2324   1.302       .  A
O2317     Zr2319   2.414       .  S
O2317      C2323   1.288       .  A
O2318     Zr2319   2.457       .  S
O2318      C2322   1.295       .  A
Zr2319     O2320   2.334       .  S
Zr2319     O2321   2.331       .  S
Zr2319     O2329   2.321       .  S
Zr2319     O2327   2.355       .  S
O2320     Zr2346   2.337       .  S
O2320     Zr2349   2.335       .  S
O2321     Zr2347   2.312       .  S
O2321     Zr2348   2.342       .  S
C2322      C2667   1.471       .  S
C2323      C2541   1.471       .  S
C2324      C2622   1.475       .  S
C2325      C2555   1.511       .  S
H2326      O2327   0.965       .  S
O2327     Zr2346   2.348       .  S
O2327     Zr2348   2.337       .  S
H2328      O2329   0.965       .  S
O2329     Zr2347   2.361       .  S
O2329     Zr2349   2.346       .  S
O2330     Zr2346   2.428       .  S
O2330      C2353   1.291       .  A
O2331     Zr2347   2.392       .  S
O2331      C2354   1.286       .  A
O2332     Zr2348   2.425       .  S
O2332      C2355   1.290       .  A
O2333     Zr2349   2.409       .  S
O2333      C2356   1.287       .  A
O2334     Zr2349   2.414       .  S
O2334      C2357   1.290       .  A
O2335     Zr2348   2.383       .  S
O2335      C2358   1.280       .  A
O2336     Zr2350   2.414       .  S
O2336      C2359   1.289       .  A
O2337     Zr2350   2.401       .  S
O2337      C2360   1.285       .  A
O2338     Zr2348   2.490       .  S
O2338      C2359   1.300       .  A
O2339     Zr2349   2.484       .  S
O2339      C2360   1.299       .  A
O2340     Zr2346   2.439       .  S
O2340      C2355   1.294       .  A
O2341     Zr2347   2.559       .  S
O2341      C2358   1.312       .  A
O2342     Zr2347   2.466       .  S
O2342      C2357   1.297       .  A
O2343     Zr2346   2.489       .  S
O2343      C2356   1.301       .  A
O2344     Zr2350   2.455       .  S
O2344      C2353   1.297       .  A
O2345     Zr2350   2.481       .  S
O2345      C2354   1.299       .  A
Zr2346     O2352   2.353       .  S
Zr2346     O2364   2.334       .  S
Zr2347     O2351   2.353       .  S
Zr2347     O2362   2.315       .  S
Zr2348     O2352   2.335       .  S
Zr2348     O2362   2.339       .  S
Zr2349     O2351   2.344       .  S
Zr2349     O2364   2.337       .  S
Zr2350     O2351   2.320       .  S
Zr2350     O2352   2.337       .  S
Zr2350     O2364   2.346       .  S
Zr2350     O2362   2.340       .  S
C2353      C2569   1.489       .  S
C2354      C2594   1.482       .  S
C2355      C2580   1.476       .  S
C2356      C2513   1.481       .  S
C2357      C2608   1.483       .  S
C2358      C2653   1.517       .  S
C2359      C2639   1.486       .  S
C2360      C2527   1.472       .  S
H2361      O2362   0.962       .  S
H2363      O2364   0.964       .  S
C2365      C2835   1.506   1_554  S
C2365      C2366   1.416       .  A
C2365      C2370   1.413       .  A
C2366      C2367   1.421       .  A
C2366      H2371   1.082       .  S
C2367      C2368   1.406       .  A
C2368      C2369   1.403       .  A
C2369      C2496   1.496       .  S
C2369      C2370   1.412       .  A
C2370      H2373   1.084   1_554  S
C2374      C2499   1.506       .  S
C2375      C2426   1.465       .  S
C2375      C2376   1.407       .  A
C2376      C2482   1.509       .  S
C2377      C2468   1.498       .  S
C2377      C2378   1.427       .  A
C2378      C2457   1.492   1_565  S
C2379      C2440   1.502       .  S
C2380      C2583   1.483       .  S
C2380      C2381   1.400   1_564  A
C2380      C2385   1.404       .  A
C2381      H2386   1.083       .  S
C2382      C2891   1.481       .  S
C2382      C2383   1.403       .  A
C2383      H2387   1.084       .  S
C2384      C2454   1.474       .  S
C2384      C2385   1.404   1_546  A
C2385      H2388   1.084       .  S
C2389      C2538   1.470       .  S
C2389      C2394   1.407       .  A
C2390      C2391   1.389       .  A
C2390      H2395   1.085       .  S
C2391      C2821   1.476       .  S
C2391      C2392   1.405       .  A
C2392      C2393   1.414       .  A
C2392      H2396   1.083       .  S
C2393      C2471   1.503       .  S
C2394      H2397   1.082       .  S
C2398      C2510   1.529       .  S
C2398      C2399   1.421       .  A
C2398      C2403   1.424       .  A
C2399      C2400   1.407       .  A
C2399      H2404   1.078       .  S
C2400      C2765   1.488       .  S
C2400      C2401   1.397       .  A
C2401      C2402   1.399       .  A
C2401      H2405   1.084       .  S
C2402      C2443   1.493       .  S
C2402      C2403   1.408       .  A
C2403      H2406   1.078       .  S
C2407      C2408   1.422   1_545  A
C2407      C2412   1.405   1_545  A
C2408      C2409   1.411       .  A
C2408      H2413   1.080       .  S
C2409      C2566   1.478       .  S
C2409      C2410   1.392       .  A
C2410      C2411   1.390       .  A
C2410      H2414   1.081       .  S
C2411      C2429   1.481       .  S
C2411      C2412   1.401       .  A
C2416      C2776   1.470   1_554  S
C2416      C2417   1.401       .  A
C2416      C2421   1.396       .  A
C2417      C2418   1.402       .  A
C2417      H2422   1.084       .  S
C2418      C2524   1.480       .  S
C2418      C2419   1.411       .  A
C2419      C2420   1.406       .  A
C2419      H2423   1.084       .  S
C2420      C2485   1.478       .  S
C2420      C2421   1.397       .  A
C2421      H2424   1.086   1_554  S
C2425      C2426   1.393       .  A
C2425      C2430   1.387       .  A
C2425      H2432   1.085   1_556  S
C2426      C2427   1.417       .  A
C2427      C2428   1.399       .  A
C2428      C2429   1.404       .  A
C2429      C2430   1.417       .  A
C2430      N2431   1.428   1_556  S
N2431      O2435   1.261       .  A
N2431      O2436   1.263       .  A
N2434      O2437   1.262       .  A
N2434      O2438   1.263       .  A
C2439      C2440   1.402       .  A
C2439      C2444   1.400       .  A
C2439      H2446   1.076       .  S
C2440      C2441   1.421       .  A
C2441      C2442   1.414       .  A
C2441      N2448   1.442   1_556  S
C2442      C2443   1.407       .  A
C2442      H2447   1.083   1_556  S
C2443      C2444   1.412       .  A
C2444      N2445   1.438       .  S
N2445      O2449   1.263       .  A
N2445      O2450   1.262       .  A
N2448      O2451   1.262       .  A
N2448      O2452   1.263       .  A
C2453      C2454   1.398   1_565  A
C2453      C2458   1.400       .  A
C2453      H2460   1.084       .  S
C2455      C2456   1.405       .  A
C2455      N2462   1.442       .  S
C2456      H2461   1.080       .  S
C2457      C2458   1.417   1_545  A
C2458      N2459   1.434       .  S
N2459      O2463   1.261       .  A
N2459      O2464   1.263       .  A
N2462      O2465   1.263       .  A
N2462      O2466   1.263       .  A
C2467      C2468   1.405   1_554  A
C2467      C2472   1.409       .  A
C2467      H2474   1.084       .  S
C2469      C2470   1.402       .  A
C2469      N2476   1.445       .  S
C2470      C2471   1.405       .  A
C2470      H2475   1.081       .  S
C2472      N2473   1.438       .  S
N2473      O2477   1.263       .  A
N2473      O2478   1.263       .  A
N2476      O2479   1.259       .  A
N2476      O2480   1.263       .  A
C2481      C2482   1.410   1_554  A
C2481      C2486   1.409       .  A
C2481      H2488   1.083       .  S
C2482      C2483   1.422       .  A
C2483      C2484   1.401       .  A
C2483      N2490   1.437       .  S
C2484      C2485   1.401   1_556  A
C2484      H2489   1.085       .  S
C2485      C2486   1.413       .  A
C2486      N2487   1.445       .  S
N2487      O2491   1.263       .  A
N2487      O2492   1.262       .  A
N2490      O2493   1.257       .  A
N2490      O2494   1.263       .  A
C2495      C2496   1.406   1_556  A
C2495      C2500   1.415       .  A
C2495      H2502   1.083       .  S
C2496      C2497   1.415       .  A
C2498      H2503   1.084       .  S
C2499      C2500   1.422       .  A
C2500      N2501   1.441       .  S
N2501      O2505   1.263       .  A
N2501      O2506   1.259   1_655  A
N2504      O2508   1.263       .  A
C2509      C2510   1.414       .  A
C2509      C2514   1.408   1_556  A
C2509      H2516   1.075       .  S
C2510      C2511   1.429       .  A
C2511      C2512   1.414       .  A
C2511      N2518   1.438       .  S
C2512      C2513   1.400   1_556  A
C2512      H2517   1.083       .  S
C2513      C2514   1.412       .  A
C2514      N2515   1.446       .  S
N2515      O2519   1.263       .  A
N2515      O2520   1.262       .  A
N2518      O2521   1.263       .  A
N2518      O2522   1.263       .  A
C2523      C2524   1.399       .  A
C2523      C2528   1.399       .  A
C2523      H2530   1.084       .  S
C2524      C2525   1.419       .  A
C2525      C2526   1.412       .  A
C2525      N2532   1.442       .  S
C2526      C2527   1.403       .  A
C2526      H2531   1.083       .  S
C2527      C2528   1.414       .  A
C2528      N2529   1.439       .  S
N2529      O2533   1.263       .  A
N2529      O2534   1.262       .  A
N2532      O2535   1.262       .  A
N2532      O2536   1.263       .  A
C2537      C2538   1.395       .  A
C2537      C2542   1.386       .  A
C2537      H2544   1.084       .  S
C2538      C2539   1.419       .  A
C2539      C2540   1.403       .  A
C2539      N2546   1.441       .  S
C2540      C2541   1.403       .  A
C2540      H2545   1.084       .  S
C2541      C2542   1.409       .  A
C2542      N2543   1.423       .  S
N2543      O2547   1.262       .  A
N2543      O2548   1.260       .  A
N2546      O2549   1.263       .  A
N2546      O2550   1.263       .  A
C2551      C2552   1.416       .  A
C2551      C2556   1.413       .  A
C2551      H2558   1.081       .  S
C2552      C2553   1.415       .  A
C2553      C2554   1.408       .  A
C2554      C2555   1.415       .  A
C2554      H2559   1.083       .  S
C2555      C2556   1.415       .  A
C2556      N2557   1.437       .  S
N2557      O2561   1.263       .  A
N2557      O2562   1.262       .  A
N2560      O2563   1.263       .  A
C2565      C2566   1.402       .  A
C2565      C2570   1.407       .  A
C2565      H2572   1.084       .  S
C2566      C2567   1.416   1_556  A
C2567      C2568   1.403       .  A
C2567      N2574   1.444       .  S
C2568      C2569   1.405       .  A
C2568      H2573   1.083       .  S
C2569      C2570   1.420   1_554  A
C2570      N2571   1.439       .  S
N2571      O2575   1.263       .  A
N2571      O2576   1.262       .  A
N2574      O2577   1.262       .  A
N2574      O2578   1.263       .  A
C2579      C2580   1.405       .  A
C2579      C2584   1.404       .  A
C2579      H2586   1.084       .  S
C2580      C2581   1.409       .  A
C2581      C2582   1.393       .  A
C2581      N2588   1.435       .  S
C2582      C2583   1.405       .  A
C2582      H2587   1.083   1_554  S
C2583      C2584   1.416       .  A
C2584      N2585   1.437       .  S
N2585      O2589   1.263       .  A
N2585      O2590   1.262   1_565  A
N2588      O2591   1.261       .  A
N2588      O2592   1.263   1_554  A
C2593      C2594   1.406       .  A
C2593      C2598   1.397       .  A
C2593      H2600   1.083       .  S
C2594      C2595   1.415       .  A
C2595      C2596   1.407       .  A
C2595      N2602   1.434       .  S
C2596      C2597   1.403       .  A
C2596      H2601   1.084       .  S
C2597      C2598   1.412       .  A
C2598      N2599   1.442       .  S
N2599      O2603   1.263       .  A
N2599      O2604   1.262       .  A
N2602      O2605   1.262       .  A
N2602      O2606   1.262       .  A
C2607      C2608   1.409       .  A
C2607      C2612   1.402       .  A
C2607      H2614   1.084       .  S
C2608      C2609   1.415       .  A
C2609      C2610   1.402       .  A
C2609      N2616   1.436       .  S
C2610      C2611   1.407       .  A
C2610      H2615   1.083       .  S
C2611      C2612   1.412       .  A
C2612      N2613   1.441       .  S
N2613      O2617   1.263       .  A
N2613      O2618   1.263       .  A
N2616      O2619   1.261       .  A
N2616      O2620   1.262       .  A
C2621      C2622   1.404       .  A
C2621      C2626   1.406       .  A
C2621      H2628   1.083       .  S
C2622      C2623   1.414       .  A
C2623      C2624   1.410       .  A
C2623      N2630   1.443       .  S
C2624      C2625   1.408       .  A
C2624      H2629   1.084       .  S
C2625      C2626   1.415       .  A
C2626      N2627   1.441       .  S
N2627      O2631   1.263       .  A
N2627      O2632   1.262       .  A
N2630      O2633   1.263       .  A
N2630      O2634   1.263       .  A
C2635      C2636   1.393       .  A
C2635      C2640   1.386       .  A
C2635      H2642   1.084       .  S
C2636      C2637   1.427       .  A
C2637      C2638   1.419       .  A
C2638      C2639   1.403       .  A
C2638      H2643   1.083       .  S
C2639      C2640   1.412       .  A
C2640      N2641   1.424       .  S
N2641      O2645   1.262       .  A
N2641      O2646   1.261       .  A
N2644      O2647   1.263       .  A
N2644      O2648   1.263       .  A
C2649      C2650   1.421       .  A
C2649      C2654   1.436       .  A
C2649      H2656   1.082       .  S
C2650      C2651   1.407       .  A
C2651      C2652   1.391       .  A
C2651      N2658   1.432       .  S
C2652      C2653   1.409       .  A
C2652      H2657   1.073       .  S
C2653      C2654   1.425       .  A
C2654      N2655   1.443       .  S
N2655      O2659   1.263       .  A
N2655      O2660   1.261       .  A
N2658      O2661   1.262       .  A
N2658      O2662   1.263       .  A
C2663      C2664   1.386       .  A
C2663      C2668   1.386       .  A
C2663      H2670   1.085       .  S
C2664      C2665   1.409       .  A
C2665      C2666   1.395       .  A
C2665      N2672   1.432       .  S
C2666      C2667   1.402       .  A
C2666      H2671   1.084       .  S
C2667      C2668   1.426       .  A
C2668      N2669   1.433       .  S
N2669      O2673   1.262       .  A
N2669      O2674   1.262       .  A
N2672      O2675   1.262       .  A
N2672      O2676   1.262       .  A
C2677      C2678   1.410       .  A
C2677      C2682   1.403       .  A
C2677      H2684   1.073       .  S
C2678      C2679   1.419       .  A
C2679      C2680   1.409       .  A
C2679      N2686   1.430       .  S
C2680      C2681   1.407       .  A
C2680      H2685   1.083       .  S
C2681      C2682   1.411       .  A
C2682      N2683   1.432       .  S
N2683      O2687   1.261       .  A
N2683      O2688   1.262       .  A
N2686      O2689   1.263       .  A
N2686      O2690   1.264       .  A
C2691      C2692   1.399       .  A
C2691      C2696   1.399       .  A
C2692      C2693   1.416       .  A
C2693      C2694   1.393       .  A
C2693      N2700   1.443       .  S
C2694      C2695   1.399       .  A
C2694      H2699   1.084       .  S
C2695      C2696   1.415       .  A
N2697      O2701   1.262       .  A
N2697      O2702   1.263   1_455  A
N2700      O2703   1.263       .  A
N2700      O2704   1.262       .  A
C2705      C2706   1.406       .  A
C2705      C2710   1.411       .  A
C2705      H2712   1.077       .  S
C2706      C2707   1.422       .  A
C2707      C2708   1.411       .  A
C2707      N2714   1.440       .  S
C2708      C2709   1.403       .  A
C2708      H2713   1.084       .  S
C2709      C2710   1.417       .  A
C2710      N2711   1.442       .  S
N2711      O2715   1.263       .  A
N2711      O2716   1.262       .  A
N2714      O2717   1.261       .  A
N2714      O2718   1.263       .  A
C2719      C2720   1.402       .  A
C2719      C2724   1.407       .  A
C2719      H2726   1.081       .  S
C2720      C2721   1.410       .  A
C2721      C2722   1.407       .  A
C2722      C2723   1.413       .  A
C2722      H2727   1.080       .  S
C2723      C2724   1.432       .  A
C2724      N2725   1.434       .  S
N2725      O2729   1.263       .  A
N2725      O2730   1.263       .  A
N2728      O2731   1.261   1_565  A
C2733      C2738   1.407       .  A
C2733      H2740   1.083       .  S
C2734      C2735   1.410       .  A
C2735      C2736   1.396       .  A
C2735      N2742   1.439       .  S
C2736      C2737   1.410       .  A
C2736      H2741   1.084       .  S
C2738      N2739   1.428       .  S
N2739      O2743   1.262       .  A
N2739      O2744   1.261       .  A
N2742      O2745   1.262       .  A
N2742      O2746   1.263       .  A
C2747      C2748   1.399       .  A
C2747      C2752   1.398       .  A
C2747      H2754   1.084       .  S
C2749      C2750   1.392       .  A
C2749      N2756   1.441       .  S
C2750      H2755   1.082       .  S
C2751      C2752   1.409       .  A
C2752      N2753   1.430       .  S
N2753      O2757   1.261       .  A
N2753      O2758   1.262       .  A
N2756      O2759   1.262       .  A
N2756      O2760   1.263       .  A
C2761      C2762   1.408       .  A
C2761      C2766   1.403       .  A
C2761      H2768   1.083       .  S
C2762      C2763   1.422       .  A
C2763      C2764   1.411       .  A
C2763      N2770   1.435       .  S
C2764      C2765   1.403       .  A
C2764      H2769   1.084       .  S
C2765      C2766   1.414       .  A
C2766      N2767   1.439       .  S
N2767      O2771   1.263       .  A
N2767      O2772   1.263       .  A
N2770      O2773   1.262       .  A
N2770      O2774   1.263       .  A
C2775      C2776   1.402       .  A
C2775      C2780   1.394       .  A
C2775      H2782   1.085       .  S
C2776      C2777   1.411       .  A
C2777      C2778   1.406       .  A
C2777      N2784   1.443   1_556  S
C2778      C2779   1.409       .  A
C2778      H2783   1.083       .  S
C2779      C2780   1.412       .  A
C2780      N2781   1.438       .  S
N2781      O2785   1.263       .  A
N2781      O2786   1.263       .  A
N2784      O2787   1.263       .  A
N2784      O2788   1.263       .  A
C2789      C2790   1.396       .  A
C2789      C2794   1.390       .  A
C2789      H2796   1.083       .  S
C2790      C2791   1.410       .  A
C2791      C2792   1.389       .  A
C2791      N2798   1.432       .  S
C2792      C2793   1.398       .  A
C2793      C2794   1.412       .  A
C2794      N2795   1.440       .  S
N2795      O2799   1.261       .  A
N2795      O2800   1.262       .  A
N2798      O2801   1.262       .  A
N2798      O2802   1.262       .  A
C2803      C2804   1.402       .  A
C2803      C2808   1.413       .  A
C2803      H2810   1.083       .  S
C2804      C2805   1.419       .  A
C2805      C2806   1.408       .  A
C2805      N2812   1.449       .  S
C2806      C2807   1.405       .  A
C2806      H2811   1.084       .  S
C2807      C2808   1.425       .  A
C2808      N2809   1.448       .  S
N2809      O2813   1.263       .  A
N2809      O2814   1.260       .  A
N2812      O2815   1.263       .  A
N2812      O2816   1.262       .  A
C2817      C2818   1.405       .  A
C2817      C2822   1.402       .  A
C2817      H2824   1.083       .  S
C2818      C2819   1.413       .  A
C2819      C2820   1.397       .  A
C2819      N2826   1.438       .  S
C2820      C2821   1.403       .  A
C2820      H2825   1.084       .  S
C2821      C2822   1.418       .  A
C2822      N2823   1.443       .  S
N2823      O2827   1.262   1_556  A
N2823      O2828   1.263       .  A
N2826      O2829   1.263       .  A
N2826      O2830   1.262       .  A
C2831      C2832   1.411       .  A
C2831      C2836   1.434       .  A
C2831      H2838   1.083       .  S
C2832      C2833   1.433       .  A
C2833      C2834   1.396       .  A
C2833      N2840   1.432       .  S
C2834      C2835   1.391       .  A
C2834      H2839   1.085       .  S
C2835      C2836   1.431       .  A
C2836      N2837   1.446   1_556  S
N2837      O2841   1.263       .  A
N2837      O2842   1.262       .  A
N2840      O2843   1.260       .  A
N2840      O2844   1.263       .  A
C2845      C2846   1.414       .  A
C2845      C2850   1.422       .  A
C2845      H2852   1.083       .  S
C2846      C2847   1.409       .  A
C2847      C2848   1.394       .  A
C2847      N2854   1.434       .  S
C2848      C2849   1.406       .  A
C2848      H2853   1.084       .  S
C2849      C2850   1.418       .  A
C2850      N2851   1.441       .  S
N2851      O2855   1.263       .  A
N2851      O2856   1.262       .  A
N2854      O2857   1.263       .  A
N2854      O2858   1.262       .  A
C2859      C2860   1.410       .  A
C2859      C2864   1.397       .  A
C2859      H2866   1.085       .  S
C2860      C2861   1.421       .  A
C2861      C2862   1.420       .  A
C2861      N2868   1.440       .  S
C2862      C2863   1.408       .  A
C2862      H2867   1.083       .  S
C2863      C2864   1.413       .  A
C2864      N2865   1.443       .  S
N2865      O2869   1.263       .  A
N2865      O2870   1.261       .  A
N2868      O2871   1.261       .  A
N2868      O2872   1.263       .  A
C2873      C2874   1.412       .  A
C2873      C2878   1.398       .  A
C2873      H2880   1.084       .  S
C2874      C2875   1.408       .  A
C2875      C2876   1.408       .  A
C2875      N2882   1.435       .  S
C2876      C2877   1.423       .  A
C2876      H2881   1.080       .  S
C2877      C2878   1.415       .  A
C2878      N2879   1.434       .  S
N2879      O2883   1.263       .  A
N2882      O2885   1.261       .  A
N2882      O2886   1.263       .  A
C2887      C2888   1.401       .  A
C2887      C2892   1.399       .  A
C2887      H2894   1.084       .  S
C2888      C2889   1.412       .  A
C2889      C2890   1.399       .  A
C2889      N2896   1.433       .  S
C2890      C2891   1.403       .  A
C2890      H2895   1.084       .  S
C2891      C2892   1.418       .  A
C2892      N2893   1.439       .  S
N2893      O2897   1.263   1_556  A
N2893      O2898   1.263   1_556  A
N2896      O2899   1.262       .  A
N2896      O2900   1.262       .  A
C2901      C2902   1.393       .  A
C2901      C2906   1.400       .  A
C2901      H2908   1.084       .  S
C2902      C2903   1.425       .  A
C2903      C2904   1.409       .  A
C2903      N2910   1.441       .  S
C2904      C2905   1.397       .  A
C2904      H2909   1.082       .  S
C2905      C2906   1.422       .  A
C2906      N2907   1.436       .  S
N2907      O2911   1.263       .  A
N2907      O2912   1.259       .  A
N2910      O2913   1.263       .  A
N2910      O2914   1.263       .  A
C2915      C2916   1.406       .  A
C2915      C2920   1.407       .  A
C2915      H2922   1.083       .  S
C2916      C2917   1.429       .  A
C2917      C2918   1.394       .  A
C2917      N2924   1.434       .  S
C2918      C2919   1.390       .  A
C2918      H2923   1.085       .  S
C2919      C2920   1.416       .  A
C2920      N2921   1.443       .  S
N2921      O2925   1.263       .  A
N2921      O2926   1.262       .  A
N2924      O2927   1.262       .  A
N2924      O2928   1.262       .  A
