geometry optimzed in LAMMPS
_audit_creation_date              2020-11-30 
_audit_creation_method            'lammps2cif' 
_symmetry_space_group_name_H-M    'P1' 
_symmetry_Int_Tables_number       1 
_symmetry_cell_setting            triclinic 
loop_ 
_symmetry_equiv_pos_as_xyz 
  x,y,z 
_cell_length_a                    37.14904258 
_cell_length_b                    37.130925389064615 
_cell_length_c                    91.74060666850816 
_cell_angle_alpha                 90.0445413748752 
_cell_angle_beta                  89.99561184306509 
_cell_angle_gamma                 120.29507384753414 
loop_ 
_atom_site_label 
_atom_site_type_symbol 
_atom_site_fract_x 
_atom_site_fract_y 
_atom_site_fract_z 
_atom_site_charge 
C1          C  0.65480517  0.07713646  0.71595677     0.04800
C2          C  0.62364790  0.03545592  0.71448640    -0.11400
C3          C  0.62540348  0.01141980  0.70311573     0.02300
C4          C  0.65916677  0.02859135  0.69344086    -0.09900
C5          C  0.69085813  0.07097715  0.69449962     0.04800
C6          C  0.68749515  0.09509756  0.70584496    -0.09300
H7          H  0.59772908  0.02186793  0.72207970     0.10400
H8          H  0.66016178  0.00826347  0.68523269     0.07900
H9          H  0.70960952  0.12801109  0.70693762     0.07700
C10         C  0.76013582  0.08729868  0.66111175     0.04800
C11         C  0.79565681  0.12516587  0.66456285    -0.11400
C12         C  0.79741978  0.14539769  0.67757195     0.02300
C13         C  0.76402215  0.12742176  0.68735662    -0.09900
C14         C  0.72704290  0.08975139  0.68397537     0.04800
C15         C  0.72562349  0.07023252  0.67051228    -0.09300
H16         H  0.82206882  0.13872992  0.65717823     0.10400
H17         H  0.76783525  0.14314797  0.69763238     0.07900
H18         H  0.69810848  0.04186043  0.66710643     0.07700
C19         C  0.48275885  0.74581026  0.83475947     0.04800
C20         C  0.50234288  0.72973978  0.84350797    -0.11400
C21         C  0.53261524  0.75516310  0.85401701     0.02300
C22         C  0.54178956  0.79689045  0.85551242    -0.09900
C23         C  0.52058355  0.81202993  0.84723308     0.04800
C24         C  0.49152015  0.78666018  0.83679818    -0.09300
H25         H  0.49330650  0.69737311  0.84206279     0.10400
H26         H  0.56548219  0.81815572  0.86299460     0.07900
H27         H  0.47579544  0.79881297  0.83019944     0.07700
C28         C  0.59364305  0.74206554  0.88537481     0.04800
C29         C  0.57311636  0.75753017  0.87681442    -0.11400
C30         C  0.55426172  0.73841998  0.86336657     0.02300
C31         C  0.55615903  0.70284954  0.85903275    -0.09900
C32         C  0.57491974  0.68640012  0.86796467     0.04800
C33         C  0.59395722  0.70622999  0.88100318    -0.09300
H34         H  0.57173583  0.78410654  0.88089654     0.10400
H35         H  0.54335771  0.68758517  0.84873164     0.07900
H36         H  0.60896887  0.69368132  0.88777957     0.07700
C37         C  0.80936338  0.41359041  0.50385708     0.04800
C38         C  0.82579191  0.39518454  0.51304043    -0.11400
C39         C  0.85632053  0.41915030  0.52368390     0.02300
C40         C  0.86863299  0.46178523  0.52504542    -0.09900
C41         C  0.85065373  0.47950515  0.51634693     0.04800
C42         C  0.82140431  0.45552735  0.50570226    -0.09300
H43         H  0.81458890  0.36227925  0.51169716     0.10400
H44         H  0.89269245  0.48189673  0.53264150     0.07900
H45         H  0.80834154  0.46965884  0.49873323     0.07700
C46         C  0.91576119  0.40221726  0.55464483     0.04800
C47         C  0.91483774  0.36596395  0.55001180    -0.11400
C48         C  0.89489019  0.34671213  0.53701783     0.02300
C49         C  0.87645086  0.36416382  0.52840996    -0.09900
C50         C  0.87605432  0.40033845  0.53299132     0.04800
C51         C  0.89562948  0.41873920  0.54641841    -0.09300
H52         H  0.92983940  0.35281724  0.55649293     0.10400
H53         H  0.86311657  0.34947331  0.51807843     0.07900
H54         H  0.89544620  0.44581214  0.55065638     0.07700
C55         C  0.43134007  0.42146373  0.99488465     0.04800
C56         C  0.39527830  0.40787001  0.00335047    -0.11400
C57         C  0.39649632  0.42788374  0.01667705     0.02300
C58         C  0.43486054  0.46285612  0.02085569    -0.09900
C59         C  0.47022519  0.47767485  0.01200745     0.04800
C60         C  0.46860166  0.45669677  0.99915617    -0.09300
H61         H  0.36660563  0.38174711  0.99935355     0.10400
H62         H  0.43802134  0.47880887  0.03104431     0.07900
H63         H  0.49629265  0.46784177  0.99246802     0.07700
C64         C  0.32063184  0.42183584  0.04640149     0.04800
C65         C  0.28789375  0.38090336  0.04466499    -0.11400
C66         C  0.28990248  0.35541527  0.03389840     0.02300
C67         C  0.32527082  0.37040406  0.02504646    -0.09900
C68         C  0.35852027  0.41200650  0.02628678     0.04800
C69         C  0.35521267  0.43771031  0.03703986    -0.09300
H70         H  0.26082824  0.36882457  0.05172635     0.10400
H71         H  0.32649376  0.34893911  0.01738499     0.07900
H72         H  0.37907603  0.47005871  0.03828680     0.07700
C73         C  0.98186546  0.74942112  0.37973174     0.04800
C74         C  0.94978335  0.70832403  0.37771865    -0.11400
C75         C  0.95433583  0.68267612  0.36767736     0.02300
C76         C  0.99123936  0.69775637  0.35971476    -0.09900
C77         C  0.02371838  0.73954012  0.36117516     0.04800
C78         C  0.01825341  0.76535825  0.37127025    -0.09300
H79         H  0.92145029  0.69609026  0.38412425     0.10400
H80         H  0.99438871  0.67632854  0.35256977     0.07900
H81         H  0.04192047  0.79773957  0.37268823     0.07700
C82         C  0.10039937  0.75075981  0.33109201     0.04800
C83         C  0.06334093  0.73666726  0.33899399    -0.11400
C84         C  0.06307115  0.75545550  0.35241807     0.02300
C85         C  0.10095920  0.78951339  0.35739576    -0.09900
C86         C  0.13748999  0.80476122  0.34915076     0.04800
C87         C  0.13731804  0.78504103  0.33614374    -0.09300
H88         H  0.03490783  0.71140388  0.33444994     0.10400
H89         H  0.10257238  0.80457749  0.36766475     0.07900
H90         H  0.16575388  0.79680042  0.32983359     0.07700
C91         C  0.14926894  0.08359139  0.16910360     0.04800
C92         C  0.16038356  0.12524574  0.17095174    -0.11400
C93         C  0.18868046  0.14937880  0.18180526     0.02300
C94         C  0.20696181  0.13220840  0.19064615    -0.09900
C95         C  0.19555701  0.08979699  0.18924917     0.04800
C96         C  0.16580689  0.06563569  0.17842317    -0.09300
H97         H  0.14696937  0.13892197  0.16392751     0.10400
H98         H  0.23018570  0.15240860  0.19846717     0.07900
H99         H  0.15503248  0.03281456  0.17710670     0.07700
C100        C  0.25197614  0.07220514  0.22112654     0.04800
C101        C  0.23295243  0.08913175  0.21249234    -0.11400
C102        C  0.21478871  0.07109250  0.19886020     0.02300
C103        C  0.21563906  0.03502566  0.19444409    -0.09900
C104        C  0.23290787  0.01719571  0.20343268     0.04800
C105        C  0.25140123  0.03601135  0.21664709    -0.09300
H106        H  0.23247513  0.11619020  0.21658062     0.10400
H107        H  0.20341451  0.02059706  0.18398383     0.07900
H108        H  0.26550175  0.02253477  0.22343377     0.07700
C109        C  0.03747515  0.69624587  0.83299565     0.04800
C110        C  0.00048727  0.66072243  0.83717655    -0.11400
C111        C  0.98094919  0.66049119  0.85020029     0.02300
C112        C  0.99880954  0.69553223  0.85930977    -0.09900
C113        C  0.03565615  0.73229787  0.85519742     0.04800
C114        C  0.05440394  0.73217121  0.84173320    -0.09300
H115        H  0.98687295  0.63320487  0.83028498     0.10400
H116        H  0.98374381  0.69349032  0.86960654     0.07900
H117        H  0.08197268  0.75974131  0.83782826     0.07700
C118        C  0.04854809  0.81175165  0.88461699     0.04800
C119        C  0.03029649  0.77669400  0.87541647    -0.11400
C120        C  0.05449021  0.77017107  0.86491797     0.02300
C121        C  0.09723283  0.80035831  0.86385112    -0.09900
C122        C  0.11479622  0.83626513  0.87250156     0.04800
C123        C  0.09064810  0.84176400  0.88295585    -0.09300
H124        H  0.99724987  0.75503605  0.87651542     0.10400
H125        H  0.11744384  0.79642974  0.85635222     0.07900
H126        H  0.10461151  0.86939986  0.88978645     0.07700
C127        C  0.69450825  0.62174428  0.66021558     0.04800
C128        C  0.71162168  0.60329208  0.66907528    -0.11400
C129        C  0.69433053  0.58679111  0.68294619     0.02300
C130        C  0.65895828  0.58884779  0.68740707    -0.09900
C131        C  0.64082612  0.60537913  0.67822305     0.04800
C132        C  0.65884159  0.62215829  0.66474490    -0.09300
H133        H  0.73825653  0.60200206  0.66500755     0.10400
H134        H  0.64520481  0.57797759  0.69804092     0.07900
H135        H  0.64514653  0.63568851  0.65778491     0.07700
C136        C  0.70693541  0.52372753  0.71357469     0.04800
C137        C  0.68897852  0.53946768  0.70392217    -0.11400
C138        C  0.71302133  0.56802351  0.69279296     0.02300
C139        C  0.75526461  0.57882869  0.69139829    -0.09900
C140        C  0.77249605  0.56147451  0.70068775     0.04800
C141        C  0.74846964  0.53448046  0.71183620    -0.09300
H142        H  0.65622959  0.52899556  0.70521096     0.10400
H143        H  0.77529660  0.60105421  0.68329778     0.07900
H144        H  0.76214131  0.52175692  0.71917880     0.07700
C145        C  0.37494704  0.35437916  0.50284401     0.04800
C146        C  0.39174363  0.38921149  0.51210573    -0.11400
C147        C  0.36646299  0.39402430  0.52259110     0.02300
C148        C  0.32421175  0.36236723  0.52362703    -0.09900
C149        C  0.30809259  0.32694486  0.51473752     0.04800
C150        C  0.33328390  0.32317190  0.50429147    -0.09300
H151        H  0.42452872  0.41206307  0.51109585     0.10400
H152        H  0.30330825  0.36506485  0.53116512     0.07900
H153        H  0.32042518  0.29594314  0.49726627     0.07700
C154        C  0.38090783  0.46687662  0.55453121     0.04800
C155        C  0.36540030  0.43084313  0.54588875    -0.11400
C156        C  0.38371193  0.43191686  0.53221599     0.02300
C157        C  0.41843541  0.46999020  0.52771806    -0.09900
C158        C  0.43478621  0.50530737  0.53666704     0.04800
C159        C  0.41589230  0.50379736  0.54996904    -0.09300
H160        H  0.33922907  0.40229418  0.54996155     0.10400
H161        H  0.43281193  0.47281176  0.51720637     0.07900
H162        H  0.42828309  0.53150312  0.55673933     0.07700
C163        C  0.36230396  0.95586301  0.99260640     0.04800
C164        C  0.32808534  0.95853967  0.99743839    -0.11400
C165        C  0.31112329  0.94359802  0.01121215     0.02300
C166        C  0.32896055  0.92659468  0.02036082    -0.09900
C167        C  0.36300893  0.92260041  0.01560591     0.04800
C168        C  0.37915041  0.93725693  0.00148168    -0.09300
H169        H  0.31465458  0.97232329  0.99047308     0.10400
H170        H  0.31609387  0.91676312  0.03116990     0.07900
H171        H  0.40465221  0.93424267  0.99722103     0.07700
C172        C  0.37515251  0.85758618  0.04563858     0.04800
C173        C  0.35748789  0.87460523  0.03637138    -0.11400
C174        C  0.38151926  0.90343069  0.02531127     0.02300
C175        C  0.42356963  0.91387778  0.02369173    -0.09900
C176        C  0.44066333  0.89562685  0.03259616     0.04800
C177        C  0.41655476  0.86788327  0.04360398    -0.09300
H178        H  0.32495531  0.86490661  0.03783840     0.10400
H179        H  0.44351458  0.93648569  0.01565979     0.07900
H180        H  0.43008793  0.85433413  0.05062868     0.07700
C181        C  0.03530308  0.18573576  0.37926713     0.04800
C182        C  0.01891057  0.20395057  0.36999383    -0.11400
C183        C  0.04444414  0.23437881  0.35955465     0.02300
C184        C  0.08650208  0.24435877  0.35838267    -0.09900
C185        C  0.10222863  0.22467075  0.36725770     0.04800
C186        C  0.07673801  0.19585377  0.37775290    -0.09300
H187        H  0.98626370  0.19412227  0.37109885     0.10400
H188        H  0.10765578  0.26797755  0.35086166     0.07900
H189        H  0.08928680  0.18146275  0.38483926     0.07700
C190        C  0.03189678  0.29799693  0.32891092     0.04800
C191        C  0.04684894  0.27612771  0.33702876    -0.11400
C192        C  0.02773504  0.25644301  0.35037135     0.02300
C193        C  0.99265221  0.25877375  0.35502470    -0.09900
C194        C  0.97669589  0.27891870  0.34657699     0.04800
C195        C  0.99661008  0.29889087  0.33366003    -0.09300
H196        H  0.07318921  0.27459594  0.33278484     0.10400
H197        H  0.97751203  0.24544687  0.36528892     0.07900
H198        H  0.98451910  0.31501951  0.32726025     0.07700
C199        C  0.70856972  0.14160460  0.21830811     0.04800
C200        C  0.74503240  0.17785352  0.21425188    -0.11400
C201        C  0.76577249  0.17866587  0.20147509     0.02300
C202        C  0.74956816  0.14348812  0.19245317    -0.09900
C203        C  0.71336683  0.10592536  0.19645932     0.04800
C204        C  0.69332614  0.10556157  0.20968530    -0.09300
H205        H  0.75744459  0.20541255  0.22109812     0.10400
H206        H  0.76560153  0.14606155  0.18234045     0.07900
H207        H  0.66624280  0.07750543  0.21356207     0.07700
C208        C  0.70648801  0.02750721  0.16758062     0.04800
C209        C  0.72258571  0.06290738  0.17658376    -0.11400
C210        C  0.69688766  0.06764075  0.18696262     0.02300
C211        C  0.65494490  0.03520957  0.18810250    -0.09900
C212        C  0.63976797  0.99909605  0.17963655     0.04800
C213        C  0.66533176  0.99542266  0.16933399    -0.09300
H214        H  0.75512459  0.08620257  0.17538514     0.10400
H215        H  0.63346496  0.03756388  0.19543816     0.07900
H216        H  0.65306585  0.96766797  0.16259165     0.07700
C217        C  0.48684807  0.68826966  0.33005817     0.04800
C218        C  0.50662306  0.72504190  0.33835655    -0.11400
C219        C  0.52525272  0.72612965  0.35195463     0.02300
C220        C  0.52418675  0.68935773  0.35669190    -0.09900
C221        C  0.50605956  0.65332971  0.34803972     0.04800
C222        C  0.48698559  0.65270083  0.33486941    -0.09300
H223        H  0.50750665  0.75254794  0.33402527     0.10400
H224        H  0.53711062  0.68812866  0.36711273     0.07900
H225        H  0.47247111  0.62454723  0.32829801     0.07700
C226        C  0.59365127  0.80749723  0.38058805     0.04800
C227        C  0.58186022  0.83745290  0.37877682    -0.11400
C228        C  0.55218344  0.83178374  0.36829806     0.02300
C229        C  0.53339726  0.79552047  0.35976679    -0.09900
C230        C  0.54533469  0.76503985  0.36116381     0.04800
C231        C  0.57630249  0.77202786  0.37161673    -0.09300
H232        H  0.59575922  0.86521031  0.38555074     0.10400
H233        H  0.50924465  0.79133268  0.35220985     0.07900
H234        H  0.58731265  0.75025386  0.37290073     0.07700
C235        C  0.27384030  0.14193151  0.71215689     0.04800
C236        C  0.26409794  0.17344887  0.71063652    -0.11400
C237        C  0.23482070  0.16976395  0.70032421     0.02300
C238        C  0.21427242  0.13386565  0.69165272    -0.09900
C239        C  0.22403406  0.10169770  0.69268318     0.04800
C240        C  0.25479172  0.10678323  0.70300774    -0.09300
H241        H  0.27918865  0.20085986  0.71756390     0.10400
H242        H  0.19031811  0.13131558  0.68433121     0.07900
H243        H  0.26439752  0.08387880  0.70408510     0.07700
C244        C  0.15877935  0.02588509  0.66195768     0.04800
C245        C  0.15893007  0.98980607  0.66615121    -0.11400
C246        C  0.18012817  0.98978173  0.67871306     0.02300
C247        C  0.20047052  0.02565609  0.68739031    -0.09900
C248        C  0.20169917  0.06299816  0.68331179     0.04800
C249        C  0.18080543  0.06251109  0.67027554    -0.09300
H250        H  0.14270082  0.96174920  0.65958481     0.10400
H251        H  0.21481249  0.02367179  0.69736761     0.07900
H252        H  0.18159696  0.09032375  0.66635120     0.07700
C253        C  0.43325693  0.97032919  0.50218474     0.04800
C254        C  0.39671217  0.95087230  0.51062427    -0.11400
C255        C  0.39605387  0.93302992  0.52435961     0.02300
C256        C  0.43323826  0.93505849  0.52918864    -0.09900
C257        C  0.46906158  0.95281697  0.52044604     0.04800
C258        C  0.46910848  0.97082399  0.50708160    -0.09300
H259        H  0.36894930  0.94931380  0.50624085     0.10400
H260        H  0.43484706  0.92280514  0.53969886     0.07900
H261        H  0.49698412  0.98481389  0.50038710     0.07700
C262        C  0.31491829  0.86230379  0.55266542     0.04800
C263        C  0.28350042  0.87196970  0.55054314    -0.11400
C264        C  0.28819756  0.90128564  0.54004723     0.02300
C265        C  0.32496416  0.92173945  0.53178403    -0.09900
C266        C  0.35690646  0.91186635  0.53346877     0.04800
C267        C  0.35087443  0.88133111  0.54397203    -0.09300
H268        H  0.25538123  0.85672240  0.55709743     0.10400
H269        H  0.32834129  0.94547104  0.52417500     0.07900
H270        H  0.37365459  0.87169689  0.54545453     0.07700
C271        C  0.64975562  0.53022139  0.21895448     0.04800
C272        C  0.68575203  0.54988228  0.21026311    -0.11400
C273        C  0.68548031  0.56757349  0.19659174     0.02300
C274        C  0.64812394  0.56568410  0.19215353    -0.09900
C275        C  0.61281186  0.54781797  0.20115163     0.04800
C276        C  0.61356368  0.52973534  0.21443041    -0.09300
H277        H  0.71377566  0.55140432  0.21435716     0.10400
H278        H  0.64594722  0.57787077  0.18169661     0.07900
H279        H  0.58598474  0.51536674  0.22126694     0.07700
C280        C  0.76534535  0.63633628  0.16754255     0.04800
C281        C  0.79587049  0.62534166  0.16934824    -0.11400
C282        C  0.79081976  0.59579816  0.17976539     0.02300
C283        C  0.75473477  0.57648803  0.18833577    -0.09900
C284        C  0.72371348  0.58770044  0.18704043     0.04800
C285        C  0.72979803  0.61824948  0.17649966    -0.09300
H286        H  0.82363116  0.63975565  0.16259307     0.10400
H287        H  0.75112810  0.55249851  0.19586433     0.07900
H288        H  0.70750172  0.62860544  0.17524161     0.07700
C289        C  0.82184496  0.35696475  0.99769677     0.04800
C290        C  0.82347821  0.32196247  0.00230522    -0.11400
C291        C  0.84376895  0.32324166  0.01527957     0.02300
C292        C  0.86166920  0.35929398  0.02389603    -0.09900
C293        C  0.86125136  0.39545560  0.01935456     0.04800
C294        C  0.84132911  0.39374655  0.00599164    -0.09300
H295        H  0.80912315  0.29377179  0.99575549     0.10400
H296        H  0.87549209  0.35850401  0.03417289     0.07900
H297        H  0.84106555  0.42083188  0.00181610     0.07700
C298        C  0.93134617  0.47809925  0.04731024     0.04800
C299        C  0.91887017  0.50757535  0.04573185    -0.11400
C300        C  0.88791494  0.50101726  0.03569246     0.02300
C301        C  0.86861940  0.46438402  0.02736050    -0.09900
C302        C  0.88136417  0.43445935  0.02849574     0.04800
C303        C  0.91347422  0.44226299  0.03854144    -0.09300
H304        H  0.93322572  0.53564625  0.05234737     0.10400
H305        H  0.84358218  0.45955457  0.02013000     0.07900
H306        H  0.92513264  0.42096354  0.03961940     0.07700
C307        C  0.10752017  0.31137411  0.83651999     0.04800
C308        C  0.07123558  0.29274879  0.84504965    -0.11400
C309        C  0.06385269  0.26109075  0.85524267     0.02300
C310        C  0.09452219  0.24950265  0.85676081    -0.09900
C311        C  0.13156127  0.26958155  0.84869953     0.04800
C312        C  0.13778477  0.30009810  0.83850698    -0.09300
H313        H  0.04921613  0.30341829  0.84367533     0.10400
H314        H  0.08995707  0.22478879  0.86411159     0.07900
H315        H  0.16615826  0.31497931  0.83207486     0.07700
C316        C  0.98624702  0.20205582  0.88602684     0.04800
C317        C  0.02318384  0.22172327  0.87782928    -0.11400
C318        C  0.02457592  0.24033043  0.86419318     0.02300
C319        C  0.98791097  0.23903967  0.85923720    -0.09900
C320        C  0.95169847  0.22092278  0.86775120     0.04800
C321        C  0.95081301  0.20213186  0.88101526    -0.09300
H322        H  0.05062410  0.22273525  0.88228726     0.10400
H323        H  0.98696687  0.25185761  0.84875874     0.07900
H324        H  0.92251976  0.18771471  0.88749445     0.07700
O325        O  0.55296951  0.18307307  0.81698592    -0.78500
O326        O  0.64916661  0.37180962  0.86766831    -0.80000
O327        O  0.61302519  0.32631363  0.81806991    -0.77100
O328        O  0.66942385  0.27012732  0.84530250    -0.75500
O329        O  0.64764506  0.22663189  0.86513646    -0.77200
O330        O  0.55170676  0.32709135  0.81838598    -0.78200
O331        O  0.66972456  0.35379505  0.84666319    -0.79500
O332        O  0.61508668  0.24488404  0.81765302    -0.79800
Eu333      Eu  0.61373164  0.28465640  0.83885551     2.39200
O334        O  0.61291958  0.28185385  0.86450905    -0.87300
O335        O  0.54483815  0.25122409  0.83014701    -0.90900
C336        C  0.58957955  0.20905649  0.81202417     1.03800
C337        C  0.67551029  0.37860070  0.85739458     1.03600
C338        C  0.58753079  0.33709297  0.81289624     1.03500
C339        C  0.67431203  0.24818030  0.85514820     1.01400
H340        H  0.59387064  0.34709944  0.84482564     0.31200
O341        O  0.57927810  0.31844200  0.84803891    -0.99700
H342        H  0.59273067  0.20062970  0.84283961     0.31200
O343        O  0.57866449  0.21460703  0.84657901    -1.02200
O344        O  0.53541718  0.31508224  0.89424759    -0.79500
O345        O  0.44038134  0.12408082  0.84441014    -0.79000
O346        O  0.52610668  0.35504128  0.84684332    -0.77400
O347        O  0.61931790  0.25165059  0.89351439    -0.80800
O348        O  0.56249313  0.14203440  0.86447620    -0.78600
O349        O  0.47004351  0.24572919  0.81761376    -0.77300
O350        O  0.41903757  0.22701561  0.86642917    -0.78800
O351        O  0.47288038  0.16713311  0.89235603    -0.80700
O352        O  0.44041647  0.27068283  0.84665367    -0.77500
O353        O  0.53400946  0.16601295  0.89209978    -0.80100
O354        O  0.56668223  0.37304299  0.86741045    -0.75900
O355        O  0.47043365  0.18423396  0.81659728    -0.75900
O356        O  0.52196906  0.12371723  0.84390186    -0.75500
O357        O  0.61972763  0.31356138  0.89442218    -0.79000
O358        O  0.47347939  0.25311748  0.89368032    -0.78500
O359        O  0.41966092  0.14283776  0.86521363    -0.76800
Eu360      Eu  0.57854646  0.31564760  0.87374689     2.39800
Eu361      Eu  0.50987364  0.18124262  0.83768530     2.39600
Eu362      Eu  0.51019578  0.28489657  0.83923001     2.38400
Eu363      Eu  0.57772068  0.21186659  0.87225000     2.39900
Eu364      Eu  0.47475999  0.21261423  0.87258647     2.39800
O365        O  0.50917684  0.17903366  0.86330030    -0.91200
O366        O  0.50976345  0.28248435  0.86488003    -0.90100
C367        C  0.49869809  0.28928187  0.89917755     1.04000
C368        C  0.41440118  0.11728215  0.85481530     1.02700
C369        C  0.54717778  0.38030412  0.85726630     1.02100
C370        C  0.63006236  0.28741118  0.89926939     1.04100
C371        C  0.54173198  0.11669482  0.85403239     1.03000
C372        C  0.46045642  0.21052987  0.81162134     1.01800
C373        C  0.41393401  0.24904707  0.85670031     1.01900
C374        C  0.49745866  0.15480916  0.89718839     1.04500
H375        H  0.44663955  0.20082690  0.84325349     0.31900
O376        O  0.47491125  0.21472910  0.84686567    -1.03400
H377        H  0.54289490  0.24462354  0.89211476     0.33900
O378        O  0.54340777  0.24574544  0.88159487    -1.05900
O379        O  0.79662195  0.84625888  0.98885163    -0.78500
O380        O  0.89250079  0.04040409  0.03752586    -0.80000
O381        O  0.76572197  0.92962353  0.01796688    -0.77100
O382        O  0.87556751  0.99485946  0.98969380    -0.75500
O383        O  0.93937897  0.99938184  0.98877381    -0.77200
O384        O  0.74867248  0.88848935  0.03834341    -0.78200
O385        O  0.84845542  0.01783187  0.01782596    -0.79500
O386        O  0.79362263  0.90640678  0.98950187    -0.79800
Eu387      Eu  0.83651740  0.94906868  0.01021319     2.39200
O388        O  0.90634446  0.98644078  0.01807355    -0.87300
O389        O  0.80613177  0.88001849  0.01864049    -0.90900
C390        C  0.78395133  0.87060969  0.98399639     1.03800
C391        C  0.86985101  0.04467927  0.02781711     1.03600
C392        C  0.74070407  0.90780119  0.02830414     1.03500
C393        C  0.91216562  0.00862864  0.98418884     1.01400
H394        H  0.82421223  0.96173090  0.03981669     0.31200
O395        O  0.83918896  0.94888765  0.03591256    -0.99700
H396        H  0.87201145  0.91852078  0.98992032     0.31200
O397        O  0.87301326  0.91805197  0.00043511    -1.02200
O398        O  0.95255656  0.98709892  0.06425870    -0.79500
O399        O  0.86002356  0.79502685  0.01503232    -0.79000
O400        O  0.80829817  0.92055165  0.06551444    -0.77400
O401        O  0.99814214  0.02575015  0.01537517    -0.80800
O402        O  0.94288689  0.91579114  0.98668265    -0.78600
O403        O  0.75442073  0.80841321  0.03759075    -0.77300
O404        O  0.87731392  0.84518278  0.06430468    -0.78800
O405        O  0.98489641  0.90372246  0.03440159    -0.80700
O406        O  0.81403320  0.84175173  0.06543962    -0.77500
O407        O  0.00131832  0.94461838  0.01396959    -0.80100
O408        O  0.86859479  0.98409533  0.06525514    -0.75900
O409        O  0.77425716  0.79064006  0.01634837    -0.75900
O410        O  0.88319959  0.85174682  0.98710362    -0.75500
O411        O  0.97831163  0.04394954  0.03651073    -0.79000
O412        O  0.95653035  0.92752434  0.06332811    -0.78500
O413        O  0.90193841  0.81643384  0.03529560    -0.76800
Eu414      Eu  0.90927921  0.98620156  0.04372892     2.39800
Eu415      Eu  0.84241106  0.84880807  0.00882593     2.39600
Eu416      Eu  0.80838747  0.87965546  0.04432394     2.38400
Eu417      Eu  0.94281479  0.95545650  0.00829802     2.39900
Eu418      Eu  0.91453444  0.88563530  0.04245228     2.39800
O419        O  0.91220146  0.88621123  0.01672731    -0.91200
O420        O  0.87824723  0.91701205  0.05198244    -0.90100
C421        C  0.96509943  0.96266046  0.06910729     1.04000
C422        C  0.88130207  0.79000318  0.02511549     1.02700
C423        C  0.83316590  0.95712250  0.07080133     1.02100
C424        C  0.00403160  0.05101106  0.02596484     1.04100
C425        C  0.91821509  0.87915963  0.98138213     1.03000
C426        C  0.74890555  0.78313697  0.02704562     1.01800
C427        C  0.84186991  0.83391764  0.07040717     1.01900
C428        C  0.00950887  0.92526041  0.02391378     1.04500
H429        H  0.83193443  0.81983917  0.03812815     0.31900
O430        O  0.84464408  0.84816540  0.03460650    -1.03400
H431        H  0.97403505  0.96994760  0.03724761     0.33900
O432        O  0.94541902  0.95476890  0.03401124    -1.05900
O433        O  0.61542281  0.31692822  0.39838971    -0.78500
O434        O  0.51936549  0.12450428  0.34901959    -0.80000
O435        O  0.53347304  0.17030379  0.39747942    -0.77100
O436        O  0.64517836  0.22968648  0.36971067    -0.75500
O437        O  0.66518203  0.27247184  0.34970261    -0.77200
O438        O  0.47078369  0.16831754  0.39777446    -0.78200
O439        O  0.56088025  0.14464756  0.36937194    -0.79500
O440        O  0.61611294  0.25555350  0.39805159    -0.79800
Eu441      Eu  0.57494874  0.21422436  0.37686263     2.39200
O442        O  0.57479563  0.21558059  0.35115995    -0.87300
O443        O  0.53930291  0.24696222  0.38579970    -0.90900
C444        C  0.62623868  0.29147056  0.40355232     1.03800
C445        C  0.53993214  0.11858216  0.35913064     1.03600
C446        C  0.49696506  0.15819652  0.40281365     1.03500
C447        C  0.67136771  0.25162428  0.35964702     1.01400
H448        H  0.49193297  0.15066382  0.37154927     0.31200
O449        O  0.50577395  0.17924673  0.36825800    -0.99700
H450        H  0.63691528  0.29849382  0.37222851     0.31200
O451        O  0.60853801  0.28389004  0.36871688    -1.02200
O452        O  0.46304253  0.18085523  0.32208357    -0.79500
O453        O  0.55733119  0.37199589  0.37183737    -0.79000
O454        O  0.41494487  0.14135478  0.37016691    -0.77400
O455        O  0.60961860  0.24438589  0.32204755    -0.80800
O456        O  0.66298669  0.35544766  0.35006709    -0.78600
O457        O  0.47104814  0.24999154  0.39942198    -0.77300
O458        O  0.43383024  0.26847475  0.35095013    -0.78800
O459        O  0.54599288  0.32718705  0.32291772    -0.80700
O460        O  0.41397167  0.22621010  0.37110837    -0.77500
O461        O  0.60812397  0.32803635  0.32251885    -0.80100
O462        O  0.43613948  0.12315337  0.34935239    -0.75900
O463        O  0.53235254  0.31264596  0.39960843    -0.75900
O464        O  0.64180636  0.37428912  0.37074051    -0.75500
O465        O  0.54819733  0.18186718  0.32180573    -0.79000
O466        O  0.46136709  0.24171573  0.32267306    -0.78500
O467        O  0.51717875  0.35224431  0.35115665    -0.76800
Eu468      Eu  0.50557155  0.18066045  0.34259708     2.39800
Eu469      Eu  0.57285152  0.31659282  0.37780948     2.39600
Eu470      Eu  0.46999152  0.21163282  0.37742568     2.38400
Eu471      Eu  0.60831236  0.28514896  0.34300787     2.39900
Eu472      Eu  0.50375112  0.28312486  0.34356346     2.39800
O473        O  0.57288970  0.31808277  0.35214039    -0.91200
O474        O  0.46993502  0.21339234  0.35171441    -0.90100
C475        C  0.45150338  0.20595170  0.31711900     1.04000
C476        C  0.53690028  0.37783593  0.36164170     1.02700
C477        C  0.40996479  0.11591988  0.35974218     1.02100
C478        C  0.58448437  0.20807412  0.31664687     1.04100
C479        C  0.66802667  0.38105271  0.36041595     1.03000
C480        C  0.49697289  0.28555248  0.40514208     1.01800
C481        C  0.40798153  0.24740089  0.36122916     1.01900
C482        C  0.58230870  0.33859309  0.31748386     1.04500
H483        H  0.48925537  0.29497776  0.37317976     0.31900
O484        O  0.50360140  0.28140211  0.36932157    -1.03400
H485        H  0.53912335  0.25066636  0.32391977     0.33900
O486        O  0.53916156  0.25017518  0.33444072    -1.05900
O487        O  0.33083604  0.68454124  0.68148626    -0.78500
O488        O  0.13955499  0.59055168  0.73125800    -0.80000
O489        O  0.22651385  0.70597126  0.70192740    -0.77100
O490        O  0.28289884  0.65291477  0.73055019    -0.75500
O491        O  0.28399116  0.59171672  0.73106543    -0.77200
O492        O  0.18307982  0.68229581  0.68208565    -0.78200
O493        O  0.20066271  0.65329193  0.73029289    -0.79500
O494        O  0.31142761  0.70640086  0.70184939    -0.79800
Eu495      Eu  0.24152190  0.65121640  0.70942401     2.39200
O496        O  0.20854284  0.58286528  0.71874452    -0.87300
O497        O  0.23956363  0.64885118  0.68375978    -0.90900
C498        C  0.33723461  0.71131836  0.69157721     1.03800
C499        C  0.16485653  0.62771041  0.73595301     1.03600
C500        C  0.20444506  0.70986243  0.69186847     1.03500
C501        C  0.29363345  0.62789754  0.73616362     1.01400
H502        H  0.15767778  0.62886461  0.70501894     0.31200
O503        O  0.17178803  0.61465526  0.70157444    -0.99700
H504        H  0.30455354  0.63113287  0.70442555     0.31200
O505        O  0.27597431  0.61638907  0.70111662    -1.02200
O506        O  0.08131978  0.47674831  0.70461688    -0.79500
O507        O  0.27393001  0.56976343  0.65549362    -0.79000
O508        O  0.10001954  0.59792077  0.68371104    -0.77400
O509        O  0.20369981  0.50908613  0.73216757    -0.80800
O510        O  0.31221590  0.56192385  0.70299224    -0.78600
O511        O  0.20983273  0.65264713  0.65453479    -0.77300
O512        O  0.12688139  0.50664592  0.65634021    -0.78800
O513        O  0.18476242  0.45371393  0.68422956    -0.80700
O514        O  0.12516477  0.56750241  0.65600582    -0.77500
O515        O  0.22809853  0.47716010  0.70410320    -0.80100
O516        O  0.08184844  0.55895663  0.70465061    -0.75900
O517        O  0.27210528  0.65378133  0.65422592    -0.75900
O518        O  0.33061566  0.60123411  0.68212906    -0.75500
O519        O  0.14163533  0.50831874  0.73261456    -0.79000
O520        O  0.10053038  0.45535376  0.68408367    -0.78500
O521        O  0.21259348  0.50718168  0.65620009    -0.76800
Eu522      Eu  0.13874906  0.54647321  0.71106972     2.39800
Eu523      Eu  0.27397068  0.61405608  0.67543534     2.39600
Eu524      Eu  0.16959717  0.61216018  0.67592894     2.38400
Eu525      Eu  0.24263272  0.54787573  0.71042451     2.39900
Eu526      Eu  0.17099697  0.50936526  0.67682956     2.39800
O527        O  0.24066358  0.54576611  0.68479269    -0.91200
O528        O  0.13685487  0.54406458  0.68541200    -0.90100
C529        C  0.07468815  0.45045955  0.69432223     1.04000
C530        C  0.24875875  0.53264308  0.65074727     1.02700
C531        C  0.07499543  0.57837291  0.69436771     1.02100
C532        C  0.16821182  0.49917674  0.73792325     1.04100
C533        C  0.33738630  0.58172927  0.69241369     1.03000
C534        C  0.24577883  0.66334053  0.64897054     1.01800
C535        C  0.11477497  0.53099130  0.65106536     1.01900
C536        C  0.20648189  0.44950778  0.69434935     1.04500
H537        H  0.20343600  0.57658309  0.65690974     0.31900
O538        O  0.20419663  0.57767493  0.66742453    -1.03400
H539        H  0.15875693  0.48326887  0.70643099     0.33900
O540        O  0.17265825  0.51129837  0.70257482    -1.05900
O541        O  0.21310626  0.51272316  0.15073332    -0.78500
O542        O  0.31398331  0.70661936  0.19923161    -0.80000
O543        O  0.27897949  0.65846204  0.15064032    -0.77100
O544        O  0.33155935  0.59942314  0.17829719    -0.75500
O545        O  0.30886042  0.55729783  0.19847477    -0.77200
O546        O  0.21887204  0.66149326  0.15076696    -0.78200
O547        O  0.33409526  0.68523095  0.17890781    -0.79500
O548        O  0.27594631  0.57385658  0.15078545    -0.79800
Eu549      Eu  0.27726240  0.61600459  0.17166581     2.39200
O550        O  0.27682135  0.61538685  0.19735572    -0.87300
O551        O  0.20828200  0.58341916  0.16307132    -0.90900
C552        C  0.24963918  0.53782580  0.14547666     1.03800
C553        C  0.33998430  0.71170769  0.18905231     1.03600
C554        C  0.25451671  0.67046928  0.14535434     1.03500
C555        C  0.33569218  0.57743320  0.18833229     1.01400
H556        H  0.25968456  0.68064755  0.17695453     0.31200
O557        O  0.24471017  0.65219778  0.18039247    -0.99700
H558        H  0.25348746  0.53158794  0.17654315     0.31200
O559        O  0.24026335  0.54660172  0.18008031    -1.02200
O560        O  0.20250690  0.65414348  0.22660093    -0.79500
O561        O  0.09996988  0.46001617  0.17839674    -0.79000
O562        O  0.19122459  0.68979783  0.17910059    -0.77400
O563        O  0.28464151  0.58729612  0.22611980    -0.80800
O564        O  0.22262869  0.47520361  0.19880547    -0.78600
O565        O  0.13627075  0.58044177  0.14999477    -0.77300
O566        O  0.08384312  0.56551886  0.19834125    -0.78800
O567        O  0.13633501  0.50779739  0.22657074    -0.80700
O568        O  0.10562981  0.60616163  0.17779496    -0.77500
O569        O  0.19649001  0.50478251  0.22654389    -0.80100
O570        O  0.23197685  0.70833002  0.19962972    -0.75900
O571        O  0.13341793  0.51731292  0.14990773    -0.75900
O572        O  0.18161429  0.45600543  0.17833975    -0.75500
O573        O  0.28670238  0.65003298  0.22655266    -0.79000
O574        O  0.13874377  0.59423405  0.22607605    -0.78500
O575        O  0.08129826  0.48176620  0.19897932    -0.76800
Eu576      Eu  0.24412879  0.65138783  0.20613259     2.39800
Eu577      Eu  0.17126556  0.51408248  0.17140765     2.39600
Eu578      Eu  0.17591366  0.61991139  0.17154566     2.38400
Eu579      Eu  0.23993947  0.54608833  0.20574688     2.39900
Eu580      Eu  0.13870478  0.55074703  0.20574243     2.39800
O581        O  0.17098630  0.51419822  0.19707661    -0.91200
O582        O  0.17545125  0.61973520  0.19723833    -0.90100
C583        C  0.16525902  0.63009890  0.23147635     1.04000
C584        C  0.07433649  0.45533878  0.18872186     1.02700
C585        C  0.21197282  0.71508653  0.18955084     1.02100
C586        C  0.29678184  0.62374854  0.23148984     1.04100
C587        C  0.20135903  0.44934218  0.18856562     1.03000
C588        C  0.12529980  0.54442982  0.14444117     1.01800
C589        C  0.07876904  0.58570155  0.18787734     1.01900
C590        C  0.16061484  0.49557794  0.23182987     1.04500
H591        H  0.11070150  0.53718323  0.17632577     0.31900
O592        O  0.13892537  0.55061325  0.17999394    -1.03400
H593        H  0.20744201  0.58240416  0.22515349     0.33900
O594        O  0.20749139  0.58238310  0.21463150    -1.05900
O595        O  0.86516480  0.98465220  0.55942633    -0.78500
O596        O  0.76580451  0.78833374  0.51226240    -0.80000
O597        O  0.74825989  0.89543307  0.53317100    -0.77100
O598        O  0.80196597  0.83539594  0.55964853    -0.75500
O599        O  0.86356372  0.83523850  0.55974363    -0.77200
O600        O  0.76848522  0.93610416  0.51262906    -0.78200
O601        O  0.74583809  0.81064246  0.53238011    -0.79500
O602        O  0.80352501  0.92230715  0.55989877    -0.79800
Eu603      Eu  0.80315292  0.87959699  0.53935460     2.39200
O604        O  0.83696750  0.84445719  0.53090196    -0.87300
O605        O  0.83806024  0.94843773  0.53049778    -0.90900
C606        C  0.82902606  0.95910587  0.56483339     1.03800
C607        C  0.73951064  0.78391282  0.52229982     1.03600
C608        C  0.74290361  0.91666029  0.52317134     1.03500
C609        C  0.82694233  0.82386690  0.56477930     1.01400
H610        H  0.77394471  0.86470478  0.51016654     0.31200
O611        O  0.80236942  0.87870406  0.51363462    -0.99700
H612        H  0.87226758  0.91459207  0.55853373     0.31200
O613        O  0.87223959  0.91442260  0.54800696    -1.02200
O614        O  0.87768864  0.84363436  0.48415859    -0.79500
O615        O  0.97679952  0.03926130  0.53157507    -0.79000
O616        O  0.79542293  0.90534182  0.48402785    -0.77400
O617        O  0.89414389  0.81051654  0.53242160    -0.80800
O618        O  0.94832715  0.92184526  0.56023838    -0.78600
O619        O  0.85344353  0.01890351  0.51123078    -0.77300
O620        O  0.93950303  0.98643207  0.48336115    -0.78800
O621        O  0.99847179  0.93673927  0.51304527    -0.80700
O622        O  0.87790282  0.98669069  0.48335993    -0.77500
O623        O  0.97735516  0.89625437  0.53362506    -0.80100
O624        O  0.79569047  0.84372074  0.48398142    -0.75900
O625        O  0.89450741  0.03945054  0.53169889    -0.75900
O626        O  0.95022189  0.98448131  0.55975126    -0.75500
O627        O  0.85176539  0.78849329  0.51228148    -0.79000
O628        O  0.94054762  0.90477187  0.48419577    -0.78500
O629        O  0.99657026  0.01830743  0.51106622    -0.76800
Eu630      Eu  0.83653656  0.84357845  0.50522220     2.39800
Eu631      Eu  0.90728841  0.98326055  0.53897686     2.39600
Eu632      Eu  0.83724096  0.94772189  0.50485715     2.38400
Eu633      Eu  0.90620278  0.87951940  0.53945431     2.39900
Eu634      Eu  0.94102282  0.94738055  0.50488060     2.39800
O635        O  0.94116555  0.94827067  0.53053982    -0.91200
O636        O  0.87149812  0.91269275  0.49670751    -0.90100
C637        C  0.91404695  0.86884328  0.47882395     1.04000
C638        C  0.00243336  0.04489226  0.52116502     1.02700
C639        C  0.78527469  0.86934384  0.47862265     1.02100
C640        C  0.87348245  0.78386166  0.52231334     1.04100
C641        C  0.96018010  0.95865871  0.56523957     1.03000
C642        C  0.87459917  0.04538872  0.52135438     1.01800
C643        C  0.91359852  0.99623742  0.47785968     1.01900
C644        C  0.00434740  0.91757538  0.52371331     1.04500
H645        H  0.92095161  0.01043872  0.50952632     0.31900
O646        O  0.90670062  0.98226088  0.51324610    -1.03400
H647        H  0.92044019  0.86446172  0.51029819     0.33900
O648        O  0.90609847  0.87846187  0.51372223    -1.05900
C649        C  0.96682003  0.13699516  0.92390644     0.18700
C650        C  0.99724662  0.13330230  0.93170232    -0.10500
C651        C  0.98619524  0.10813659  0.94416839    -0.11300
C652        C  0.94464875  0.08647209  0.94892437     0.20200
C653        C  0.91429217  0.09047468  0.94119796    -0.13300
C654        C  0.92533980  0.11563404  0.92874001    -0.11600
C655        C  0.93308412  0.05953204  0.96152365     0.01200
C656        C  0.92351153  0.03646232  0.97191326    -0.31600
C657        C  0.97769942  0.16188289  0.91080221     0.02600
C658        C  0.98388032  0.18126453  0.89959878    -0.33300
H659        H  0.02939313  0.14958050  0.92808698     0.13600
H660        H  0.00996689  0.10530155  0.95002485     0.13400
H661        H  0.88206627  0.07390216  0.94472998     0.13300
H662        H  0.90148707  0.11816578  0.92281060     0.12300
C663        C  0.77873812  0.23858142  0.85627356     0.18700
C664        C  0.81222616  0.25922585  0.84658602    -0.10500
C665        C  0.84711214  0.25440773  0.84786552    -0.11300
C666        C  0.84856032  0.22888099  0.85881929     0.20200
C667        C  0.81490541  0.20798371  0.86841590    -0.13300
C668        C  0.78007822  0.21279874  0.86713997    -0.11600
C669        C  0.88510103  0.22531589  0.86065767     0.01200
C670        C  0.91561911  0.22288725  0.86324425    -0.31600
C671        C  0.74308420  0.24395225  0.85522900     0.02600
C672        C  0.71229092  0.24699544  0.85492400    -0.33300
H673        H  0.81149663  0.27922971  0.83814256     0.13600
H674        H  0.87305460  0.27085855  0.84043156     0.13400
H675        H  0.81577956  0.18832535  0.87696761     0.13300
H676        H  0.75435260  0.19668627  0.87468595     0.12300
C677        C  0.14184171  0.43472048  0.77628428     0.18700
C678        C  0.17474722  0.44345795  0.78582934    -0.10500
C679        C  0.16717799  0.42064930  0.79874185    -0.11300
C680        C  0.12663509  0.38899354  0.80220439     0.20200
C681        C  0.09367481  0.38052413  0.79272877    -0.13300
C682        C  0.10124473  0.40332717  0.77981414    -0.11600
C683        C  0.11917177  0.36385224  0.81506944     0.01200
C684        C  0.11335609  0.34097764  0.82526410    -0.31600
C685        C  0.14993897  0.45734957  0.76275597     0.02600
C686        C  0.15763439  0.47625460  0.75139403    -0.33300
H687        H  0.20628445  0.46758086  0.78321643     0.13600
H688        H  0.19297625  0.42733117  0.80592187     0.13400
H689        H  0.06224423  0.35596087  0.79523208     0.13300
H690        H  0.07555139  0.39619688  0.77252105     0.12300
C691        C  0.23025078  0.25161453  0.85394296     0.18700
C692        C  0.25036344  0.24954831  0.84133112    -0.10500
C693        C  0.28736161  0.24856151  0.84241540    -0.11300
C694        C  0.30452046  0.24968718  0.85611362     0.20200
C695        C  0.28432454  0.25152317  0.86876659    -0.13300
C696        C  0.24723217  0.25251686  0.86767888    -0.11600
C697        C  0.34305463  0.24941054  0.85702511     0.01200
C698        C  0.37546472  0.24932297  0.85705419    -0.31600
C699        C  0.19327597  0.25464952  0.85265953     0.02600
C700        C  0.16396011  0.25975822  0.85103703    -0.33300
H701        H  0.23765967  0.24910928  0.83065853     0.13600
H702        H  0.30274840  0.24720969  0.83256956     0.13400
H703        H  0.29735746  0.25247409  0.87942106     0.13300
H704        H  0.23205640  0.25438580  0.87750128     0.12300
C705        C  0.05831671  0.51516370  0.10663776     0.18700
C706        C  0.01496025  0.48910164  0.10727272    -0.10500
C707        C  0.99092923  0.48048846  0.09463498    -0.11300
C708        C  0.01008064  0.49783817  0.08126865     0.20200
C709        C  0.05351912  0.52359813  0.08058568    -0.13300
C710        C  0.07759768  0.53222209  0.09324734    -0.11600
C711        C  0.98477117  0.49027767  0.06845654     0.01200
C712        C  0.96150214  0.48427798  0.05837973    -0.31600
C713        C  0.08266938  0.52514325  0.11980492     0.02600
C714        C  0.10222192  0.53372673  0.13103066    -0.33300
H715        H  0.99969882  0.47581268  0.11755982     0.13600
H716        H  0.95737201  0.46067859  0.09531378     0.13400
H717        H  0.06867168  0.53733972  0.07032797     0.13300
H718        H  0.11110226  0.55249725  0.09262809     0.12300
C719        C  0.87124518  0.60044748  0.03066252     0.18700
C720        C  0.87426598  0.61746273  0.01678129    -0.10500
C721        C  0.87646971  0.65601201  0.01528314    -0.11300
C722        C  0.87574641  0.67774185  0.02766374     0.20200
C723        C  0.87214363  0.66045792  0.04153773    -0.13300
C724        C  0.86994739  0.62191295  0.04303568    -0.11600
C725        C  0.87892918  0.71783044  0.02617181     0.01200
C726        C  0.88088263  0.75117154  0.02533463    -0.31600
C727        C  0.87241259  0.56250590  0.03226175     0.02600
C728        C  0.87719967  0.53292809  0.03371969    -0.33300
H729        H  0.87561243  0.60127700  0.00715080     0.13600
H730        H  0.87918641  0.66905896  0.00450658     0.13400
H731        H  0.87149383  0.67697064  0.05118614     0.13300
H732        H  0.86793799  0.60920039  0.05382922     0.12300
C733        C  0.86308323  0.15081033  0.02660834     0.18700
C734        C  0.85399337  0.16143619  0.01301740    -0.10500
C735        C  0.85006410  0.19674055  0.01160139    -0.11300
C736        C  0.85517478  0.22169025  0.02376565     0.20200
C737        C  0.86448502  0.21126155  0.03738642    -0.13300
C738        C  0.86841899  0.17582403  0.03880807    -0.11600
C739        C  0.85087717  0.25788747  0.02206816     0.01200
C740        C  0.84724907  0.28775506  0.01950082    -0.31600
C741        C  0.86641088  0.11396646  0.02789080     0.02600
C742        C  0.86828851  0.08249111  0.02813423    -0.33300
H743        H  0.84981065  0.14233962  0.00351958     0.13600
H744        H  0.84294659  0.20454351  0.00101974     0.13400
H745        H  0.86858738  0.23038842  0.04686564     0.13300
H746        H  0.87546183  0.16788556  0.04937746     0.12300
C747        C  0.70328699  0.31996600  0.93573898     0.18700
C748        C  0.74676053  0.34461144  0.93453813    -0.10500
C749        C  0.77189460  0.35481821  0.94699324    -0.11300
C750        C  0.75369694  0.34046830  0.96072790     0.20200
C751        C  0.71022084  0.31600552  0.96192293    -0.13300
C752        C  0.68511034  0.30580237  0.94947906    -0.11600
C753        C  0.77944970  0.34952233  0.97354214     0.01200
C754        C  0.79966845  0.35457790  0.98446312    -0.31600
C755        C  0.67737739  0.30879485  0.92289210     0.02600
C756        C  0.65568312  0.29908905  0.91213529    -0.33300
H757        H  0.76121360  0.35570882  0.92397885     0.13600
H758        H  0.80545641  0.37358300  0.94590092     0.13400
H759        H  0.69576006  0.30454718  0.97245876     0.13300
H760        H  0.65157257  0.28668409  0.95056168     0.12300
C761        C  0.96635896  0.58010077  0.18572103     0.18700
C762        C  0.94541139  0.57977155  0.19847049    -0.10500
C763        C  0.90745977  0.57906482  0.19758136    -0.11300
C764        C  0.89028047  0.57860349  0.18393784     0.20200
C765        C  0.91087665  0.57820373  0.17119642    -0.13300
C766        C  0.94880989  0.57891430  0.17208473    -0.11600
C767        C  0.85290899  0.58104104  0.18295341     0.01200
C768        C  0.82341475  0.58604703  0.18172764    -0.31600
C769        C  0.00620092  0.58249956  0.18661054     0.02600
C770        C  0.03959814  0.58453151  0.18725514    -0.33300
H771        H  0.95868548  0.58064975  0.20907110     0.13600
H772        H  0.89190660  0.57959569  0.20750129     0.13400
H773        H  0.89797848  0.57806727  0.16059000     0.13300
H774        H  0.96471396  0.57912534  0.16215683     0.12300
C775        C  0.78970309  0.71536048  0.13320599     0.18700
C776        C  0.80943774  0.75889425  0.13451839    -0.10500
C777        C  0.82099375  0.78401197  0.12200435    -0.11300
C778        C  0.81295869  0.76573445  0.10810181     0.20200
C779        C  0.79339744  0.72226129  0.10682946    -0.13300
C780        C  0.78185897  0.69721132  0.11931038    -0.11600
C781        C  0.82428650  0.79115166  0.09509343     0.01200
C782        C  0.83265927  0.81090702  0.08387692    -0.31600
C783        C  0.77860912  0.68917157  0.14600479     0.02600
C784        C  0.77091729  0.66574186  0.15619965    -0.33300
H785        H  0.81597102  0.77338436  0.14518659     0.13600
H786        H  0.83613320  0.81757797  0.12316838     0.13400
H787        H  0.78703338  0.70770564  0.09617463     0.13300
H788        H  0.76691545  0.66366532  0.11812028     0.12300
C789        C  0.63837060  0.46560245  0.25654302     0.18700
C790        C  0.62690706  0.47698073  0.26956067    -0.10500
C791        C  0.61682177  0.45154106  0.28193368    -0.11300
C792        C  0.61803583  0.41441470  0.28142712     0.20200
C793        C  0.63022297  0.40337125  0.26847965    -0.13300
C794        C  0.64032394  0.42884332  0.25609313    -0.11600
C795        C  0.60584363  0.38739234  0.29408031     0.01200
C796        C  0.59506162  0.36508951  0.30474177    -0.31600
C797        C  0.64582777  0.49038145  0.24349915     0.02600
C798        C  0.64929684  0.50963785  0.23242689    -0.33300
H799        H  0.62507733  0.50516284  0.27008003     0.13600
H800        H  0.60750096  0.46053807  0.29183956     0.13400
H801        H  0.63135074  0.37481477  0.26789539     0.13300
H802        H  0.64896176  0.41951471  0.24610724     0.12300
C803        C  0.44029849  0.56717551  0.18914988     0.18700
C804        C  0.43682134  0.52830176  0.18656861    -0.10500
C805        C  0.47175109  0.52354843  0.18800595    -0.11300
C806        C  0.51038445  0.55764917  0.19202961     0.20200
C807        C  0.51397962  0.59663947  0.19440203    -0.13300
C808        C  0.47907484  0.60138848  0.19296944    -0.11600
C809        C  0.54594611  0.55246214  0.19433382     0.01200
C810        C  0.57613420  0.54941538  0.19703051    -0.31600
C811        C  0.40389285  0.57162622  0.18837028     0.02600
C812        C  0.37305854  0.57478253  0.18817357    -0.33300
H813        H  0.40702285  0.50157216  0.18364220     0.13600
H814        H  0.46850193  0.49321219  0.18618795     0.13400
H815        H  0.54362278  0.62321808  0.19756443     0.13300
H816        H  0.48220393  0.63157465  0.19502915     0.12300
C817        C  0.27675446  0.73303395  0.61162872     0.18700
C818        C  0.31797861  0.76435359  0.60881354    -0.10500
C819        C  0.32741012  0.78933939  0.59634276    -0.11300
C820        C  0.29567649  0.78312381  0.58659751     0.20200
C821        C  0.25457969  0.75147377  0.58933360    -0.13300
C822        C  0.24515966  0.72652647  0.60178776    -0.11600
C823        C  0.30469438  0.81017944  0.57414501     0.01200
C824        C  0.31031678  0.83342413  0.56406867    -0.31600
C825        C  0.26659580  0.70827484  0.62475308     0.02600
C826        C  0.25735031  0.68776482  0.63580020    -0.33300
H827        H  0.34270484  0.76977206  0.61633469     0.13600
H828        H  0.35928403  0.81379561  0.59440437     0.13400
H829        H  0.22972449  0.74643719  0.58193595     0.13300
H830        H  0.21317180  0.70249641  0.60382842     0.12300
C831        C  0.11532326  0.92094986  0.52878024     0.18700
C832        C  0.13479192  0.91330060  0.51707508    -0.10500
C833        C  0.17117638  0.91161138  0.51935488    -0.11300
C834        C  0.18839068  0.91757545  0.53335744     0.20200
C835        C  0.16908438  0.92550664  0.54506330    -0.13300
C836        C  0.13267112  0.92720293  0.54278143    -0.11600
C837        C  0.22504533  0.91426910  0.53574153     0.01200
C838        C  0.25466332  0.90965984  0.53766310    -0.31600
C839        C  0.07701161  0.92122397  0.52648230     0.02600
C840        C  0.04424429  0.92020997  0.52482360    -0.33300
H841        H  0.12164284  0.90826960  0.50621610     0.13600
H842        H  0.18566644  0.90528370  0.51022566     0.13400
H843        H  0.18194746  0.92999843  0.55595431     0.13300
H844        H  0.11786169  0.93299881  0.55193985     0.12300
C845        C  0.46468251  0.08227414  0.43871821     0.18700
C846        C  0.44819574  0.09087153  0.45111292    -0.10500
C847        C  0.43915532  0.06621752  0.46364712    -0.11300
C848        C  0.44647369  0.03268887  0.46391628     0.20200
C849        C  0.46269910  0.02386458  0.45148824    -0.13300
C850        C  0.47174189  0.04853849  0.43893994    -0.11600
C851        C  0.43884356  0.00852046  0.47711048     0.01200
C852        C  0.43456148  0.99004500  0.48843214    -0.31600
C853        C  0.47508636  0.10855807  0.42593349     0.02600
C854        C  0.48453784  0.13109340  0.41537029    -0.33300
H855        H  0.44265632  0.11685548  0.45113329     0.13600
H856        H  0.42684528  0.07356567  0.47317854     0.13400
H857        H  0.46873880  0.99820466  0.45154504     0.13300
H858        H  0.48455545  0.04153431  0.42946823     0.12300
C859        C  0.56978894  0.93901244  0.52722814     0.18700
C860        C  0.60776645  0.96886216  0.53344266    -0.10500
C861        C  0.64225714  0.96311836  0.53301879    -0.11300
C862        C  0.63897880  0.92756344  0.52634976     0.20200
C863        C  0.60077263  0.89737168  0.52040342    -0.13300
C864        C  0.56633220  0.90309443  0.52083478    -0.11600
C865        C  0.67506729  0.92272501  0.52516502     0.01200
C866        C  0.70570125  0.91944451  0.52405153    -0.31600
C867        C  0.53494783  0.94596286  0.52658405     0.02600
C868        C  0.50511787  0.95015553  0.52461174    -0.33300
H869        H  0.61092318  0.99684958  0.53836166     0.13600
H870        H  0.67162691  0.98670582  0.53765513     0.13400
H871        H  0.59779696  0.86977392  0.51521596     0.13300
H872        H  0.53720934  0.87987619  0.51593777     0.12300
C873        C  0.18892069  0.88650035  0.68713264     0.18700
C874        C  0.15372543  0.84758910  0.69005713    -0.10500
C875        C  0.15768440  0.81223846  0.69155854    -0.11300
C876        C  0.19685078  0.81563145  0.69013479     0.20200
C877        C  0.23210105  0.85461263  0.68736084    -0.13300
C878        C  0.22814339  0.88995371  0.68586215    -0.11600
C879        C  0.20065150  0.77897708  0.69111920     0.01200
C880        C  0.20306410  0.74779856  0.69159691    -0.31600
C881        C  0.18469977  0.92260793  0.68493384     0.02600
C882        C  0.18197417  0.95305850  0.68246694    -0.33300
H883        H  0.12322643  0.84451027  0.69101284     0.13600
H884        H  0.13019376  0.78223717  0.69366977     0.13400
H885        H  0.26251634  0.85759711  0.68620510     0.13300
H886        H  0.25555316  0.91984982  0.68355379     0.12300
C887        C  0.03671255  0.99228606  0.60098257     0.18700
C888        C  0.03578068  0.01773144  0.61211493    -0.10500
C889        C  0.06176455  0.02730814  0.62433660    -0.11300
C890        C  0.08892728  0.01154733  0.62552148     0.20200
C891        C  0.08998373  0.98628581  0.61434911    -0.13300
C892        C  0.06402838  0.97671920  0.60214103    -0.11600
C893        C  0.11478765  0.02008224  0.63833425     0.01200
C894        C  0.13561991  0.02465150  0.64907923    -0.31600
C895        C  0.00943273  0.98169198  0.58847019     0.02600
C896        C  0.98678165  0.97183416  0.57792901    -0.33300
H897        H  0.01481680  0.02995414  0.61139018     0.13600
H898        H  0.06044688  0.04672062  0.63289735     0.13400
H899        H  0.11065574  0.97372346  0.61512524     0.13300
H900        H  0.06509339  0.95698573  0.59364788     0.12300
C901        C  0.21046477  0.34151606  0.69601496     0.18700
C902        C  0.19847954  0.31445332  0.68401837    -0.10500
C903        C  0.20176384  0.27852570  0.68461211    -0.11300
C904        C  0.21702250  0.26945063  0.69721195     0.20200
C905        C  0.22895005  0.29647550  0.70921033    -0.13300
C906        C  0.22566702  0.33237582  0.70861750    -0.11600
C907        C  0.22108774  0.23286105  0.69781578     0.01200
C908        C  0.22610242  0.20325293  0.69872510    -0.31600
C909        C  0.20788747  0.37898367  0.69532522     0.02600
C910        C  0.20672524  0.41089449  0.69481733    -0.33300
H911        H  0.18679640  0.32122213  0.67419853     0.13600
H912        H  0.19256738  0.25795177  0.67524979     0.13400
H913        H  0.24091832  0.28987109  0.71899562     0.13300
H914        H  0.23515158  0.35308147  0.71794908     0.12300
C915        C  0.39602295  0.18158298  0.77310042     0.18700
C916        C  0.39116001  0.21210600  0.76587451    -0.10500
C917        C  0.36849302  0.20246311  0.75284504    -0.11300
C918        C  0.35050991  0.16222452  0.74690381     0.20200
C919        C  0.35584631  0.13181849  0.75402114    -0.13300
C920        C  0.37855881  0.14148095  0.76706782    -0.11600
C921        C  0.32509941  0.15199551  0.73391389     0.01200
C922        C  0.30246502  0.14572528  0.72356519    -0.31600
C923        C  0.41837403  0.19132961  0.78677359     0.02600
C924        C  0.43717322  0.19991376  0.79819731    -0.33300
H925        H  0.40450238  0.24322422  0.77039128     0.13600
H926        H  0.36451033  0.22624128  0.74750488     0.13400
H927        H  0.34201705  0.10055846  0.74959937     0.13300
H928        H  0.38210609  0.11758897  0.77252532     0.12300
C929        C  0.53684759  0.93198880  0.36281697     0.18700
C930        C  0.50085217  0.93354247  0.36617309    -0.10500
C931        C  0.50102914  0.97122076  0.36496391    -0.11300
C932        C  0.53719394  0.00743637  0.36040502     0.20200
C933        C  0.57306020  0.00577306  0.35698064    -0.13300
C934        C  0.57287952  0.96816236  0.35818426    -0.11600
C935        C  0.53789157  0.04648774  0.35953709     0.01200
C936        C  0.53893846  0.07945798  0.35913586    -0.31600
C937        C  0.53766445  0.89386767  0.36451106     0.02600
C938        C  0.54211485  0.86411430  0.36612195    -0.33300
H939        H  0.47287262  0.90581207  0.36982690     0.13600
H940        H  0.47315030  0.97219525  0.36768228     0.13400
H941        H  0.60122260  0.03358553  0.35349028     0.13300
H942        H  0.60093906  0.96735576  0.35562363     0.12300
C943        C  0.71675103  0.84023628  0.44101758     0.18700
C944        C  0.73270558  0.86844754  0.42935849    -0.10500
C945        C  0.70934709  0.86091069  0.41656307    -0.11300
C946        C  0.66986012  0.82507373  0.41532221     0.20200
C947        C  0.65401475  0.79674115  0.42694177    -0.13300
C948        C  0.67736482  0.80428004  0.43973694    -0.11600
C949        C  0.64490209  0.81812373  0.40240922     0.01200
C950        C  0.62249603  0.81279085  0.39209081    -0.31600
C951        C  0.74043190  0.84868443  0.45435893     0.02600
C952        C  0.76057160  0.85712043  0.46548975    -0.33300
H953        H  0.76303808  0.89642389  0.43020560     0.13600
H954        H  0.72189175  0.88319861  0.40770852     0.13400
H955        H  0.62345031  0.76904142  0.42616515     0.13300
H956        H  0.66457391  0.78226581  0.44866267     0.12300
C957        C  0.52754559  0.48236773  0.35975141     0.18700
C958        C  0.55048001  0.51784893  0.36844309    -0.10500
C959        C  0.54501564  0.55228714  0.36687563    -0.11300
C960        C  0.51657851  0.55134202  0.35662567     0.20200
C961        C  0.49375135  0.51589597  0.34791133    -0.13300
C962        C  0.49921084  0.48149910  0.34947616    -0.11600
C963        C  0.51169433  0.58711514  0.35470451     0.01200
C964        C  0.50847369  0.61727671  0.35227456    -0.31600
C965        C  0.53286694  0.44675385  0.36129053     0.02600
C966        C  0.53568416  0.41583397  0.36190198    -0.33300
H967        H  0.57254299  0.51889609  0.37639672     0.13600
H968        H  0.56302706  0.57964894  0.37359973     0.13400
H969        H  0.47188549  0.51492082  0.33988212     0.13300
H970        H  0.48138702  0.45426088  0.34267373     0.12300
C971        C  0.37104844  0.65395305  0.26758487     0.18700
C972        C  0.40969359  0.65591217  0.26681702    -0.10500
C973        C  0.43451837  0.66512270  0.27930670    -0.11300
C974        C  0.42085845  0.67246222  0.29263465     0.20200
C975        C  0.38211204  0.67025573  0.29341342    -0.13300
C976        C  0.35729819  0.66104654  0.28093062    -0.11600
C977        C  0.44598451  0.68114775  0.30558060     0.01200
C978        C  0.46568047  0.68626879  0.31663124    -0.31600
C979        C  0.34539612  0.64442577  0.25473653     0.02600
C980        C  0.32347798  0.63573840  0.24407250    -0.33300
H981        H  0.42060124  0.65030918  0.25658201     0.13600
H982        H  0.46426389  0.66642868  0.27857993     0.13400
H983        H  0.37105635  0.67555898  0.30366832     0.13300
H984        H  0.32741792  0.65944254  0.28168563     0.12300
C985        C  0.79379588  0.98874821  0.10780140     0.18700
C986        C  0.77462949  0.95918580  0.11891885    -0.10500
C987        C  0.76004520  0.96915888  0.13148472    -0.11300
C988        C  0.76454931  0.00879373  0.13305245     0.20200
C989        C  0.78369661  0.03838335  0.12193296    -0.13300
C990        C  0.79829771  0.02840297  0.10935526    -0.11600
C991        C  0.74800759  0.01832269  0.14579530     0.01200
C992        C  0.73125013  0.02405862  0.15611106    -0.31600
C993        C  0.80843903  0.97820329  0.09478708     0.02600
C994        C  0.82010489  0.96882397  0.08387879    -0.33300
H995        H  0.77081440  0.92838736  0.11784948     0.13600
H996        H  0.74501713  0.94587813  0.13993384     0.13400
H997        H  0.78709250  0.06902104  0.12294258     0.13300
H998        H  0.81292348  0.05151365  0.10083097     0.12300
C999        C  0.44943201  0.82169996  0.18748293     0.18700
C1000       C  0.45117437  0.85962905  0.19033010    -0.10500
C1001       C  0.48900833  0.89713585  0.18899935    -0.11300
C1002       C  0.52502484  0.89664358  0.18481412     0.20200
C1003       C  0.52320624  0.85867775  0.18204000    -0.13300
C1004       C  0.48546952  0.82126589  0.18337026    -0.11600
C1005       C  0.56399697  0.93484495  0.18325009     0.01200
C1006       C  0.59795921  0.96514764  0.18166467    -0.31600
C1007       C  0.41065537  0.78315612  0.18847228     0.02600
C1008       C  0.37846720  0.75040234  0.18888535    -0.33300
H1009       H  0.42335651  0.86019099  0.19349031     0.13600
H1010       H  0.49016063  0.92638694  0.19116575     0.13400
H1011       H  0.55092245  0.85803158  0.17879725     0.13300
H1012       H  0.48433441  0.79205472  0.18112190     0.12300
C1013       C  0.62480806  0.17506814  0.28024045     0.18700
C1014       C  0.65473324  0.16281925  0.28149159    -0.10500
C1015       C  0.66969788  0.15288330  0.26901069    -0.11300
C1016       C  0.65479420  0.15505741  0.25519144     0.20200
C1017       C  0.62478482  0.16719697  0.25394523    -0.13300
C1018       C  0.60982208  0.17713411  0.26642486    -0.11600
C1019       C  0.67146413  0.14649891  0.24227753     0.01200
C1020       C  0.68714894  0.14210089  0.23138230    -0.31600
C1021       C  0.60998276  0.18609955  0.29308344     0.02600
C1022       C  0.59806867  0.19587300  0.30382903    -0.33300
H1023       H  0.66668017  0.16121158  0.29209542     0.13600
H1024       H  0.69310083  0.14383904  0.27012602     0.13400
H1025       H  0.61321075  0.16929898  0.24332781     0.13300
H1026       H  0.58679420  0.18667294  0.26529424     0.12300
C1027       C  0.95918208  0.35143128  0.19101249     0.18700
C1028       C  0.92736513  0.35552116  0.19758023    -0.10500
C1029       C  0.88742502  0.32072146  0.19903330    -0.11300
C1030       C  0.87915228  0.28171714  0.19391665     0.20200
C1031       C  0.91095545  0.27762889  0.18734469    -0.13300
C1032       C  0.95090392  0.31243391  0.18589225    -0.11600
C1033       C  0.83839684  0.24572356  0.19578728     0.01200
C1034       C  0.80478139  0.21532535  0.19795262    -0.31600
C1035       C  0.00032649  0.38719539  0.18964586     0.02600
C1036       C  0.03449072  0.41778396  0.18887204    -0.33300
H1037       H  0.93346944  0.38552957  0.20160995     0.13600
H1038       H  0.86310133  0.32416372  0.20420232     0.13400
H1039       H  0.90492657  0.24755247  0.18342274     0.13300
H1040       H  0.97531615  0.30893067  0.18083176     0.12300
C1041       C  0.78615020  0.26212442  0.35858787     0.18700
C1042       C  0.81900429  0.29878098  0.35265034    -0.10500
C1043       C  0.85870159  0.30356185  0.35133211    -0.11300
C1044       C  0.86581747  0.27173315  0.35595987     0.20200
C1045       C  0.83312342  0.23530578  0.36210564    -0.13300
C1046       C  0.79337876  0.23051720  0.36342407    -0.11600
C1047       C  0.90600248  0.27558342  0.35367691     0.01200
C1048       C  0.93885748  0.27788681  0.35089422    -0.31600
C1049       C  0.74496937  0.25676846  0.35936100     0.02600
C1050       C  0.71099157  0.25357541  0.35960269    -0.33300
H1051       H  0.81379858  0.32342058  0.34886650     0.13600
H1052       H  0.88365583  0.33176711  0.34649999     0.13400
H1053       H  0.83819422  0.21039112  0.36565854     0.13300
H1054       H  0.76822932  0.20202408  0.36802538     0.12300
C1055       C  0.11739362  0.41985389  0.26773036     0.18700
C1056       C  0.14311289  0.42554722  0.27973991    -0.10500
C1057       C  0.12716919  0.39924053  0.29189652    -0.11300
C1058       C  0.08539042  0.36699877  0.29213686     0.20200
C1059       C  0.05974486  0.36122650  0.28009721    -0.13300
C1060       C  0.07567779  0.38751561  0.26794937    -0.11600
C1061       C  0.06835921  0.34090449  0.30490845     0.01200
C1062       C  0.05271961  0.32029852  0.31575460    -0.31600
C1063       C  0.13360868  0.44713269  0.25521655     0.02600
C1064       C  0.14639523  0.46948406  0.24461351    -0.33300
H1065       H  0.17539876  0.45040945  0.27973564     0.13600
H1066       H  0.14731063  0.40424738  0.30114328     0.13400
H1067       H  0.02735037  0.33661944  0.28014711     0.13300
H1068       H  0.05541934  0.38274216  0.25875947     0.12300
C1069       C  0.94820423  0.06302852  0.43985621     0.18700
C1070       C  0.95273456  0.04518750  0.42701427    -0.10500
C1071       C  0.96678340  0.06887375  0.41421610    -0.11300
C1072       C  0.97632232  0.11053912  0.41415908     0.20200
C1073       C  0.97128693  0.12821216  0.42695505    -0.13300
C1074       C  0.95724112  0.10453090  0.43975108    -0.11600
C1075       C  0.99335887  0.13574396  0.40123277     0.01200
C1076       C  0.01050881  0.15782080  0.39083848    -0.31600
C1077       C  0.93540747  0.03920211  0.45321046     0.02600
C1078       C  0.92540553  0.01962536  0.46446613    -0.33300
H1079       H  0.94593858  0.01317680  0.42694313     0.13600
H1080       H  0.97078011  0.05489865  0.40443350     0.13400
H1081       H  0.97878791  0.16044546  0.42709578     0.13300
H1082       H  0.95395403  0.11873560  0.44960056     0.12300
C1083       C  0.29750670  0.24660188  0.36308721     0.18700
C1084       C  0.27526983  0.24262494  0.35026375    -0.10500
C1085       C  0.23662805  0.24058284  0.35091711    -0.11300
C1086       C  0.21995254  0.24255043  0.36439604     0.20200
C1087       C  0.24225955  0.24673501  0.37722887    -0.13300
C1088       C  0.28093080  0.24878299  0.37657555    -0.11600
C1089       C  0.17944282  0.23893137  0.36507315     0.01200
C1090       C  0.14473418  0.23390413  0.36580140    -0.31600
C1091       C  0.33685501  0.24762647  0.36240012     0.02600
C1092       C  0.36941365  0.24773471  0.36179803    -0.33300
H1093       H  0.28765587  0.24079855  0.33977483     0.13600
H1094       H  0.21961843  0.23714354  0.34092908     0.13400
H1095       H  0.22962775  0.24808303  0.38772792     0.13300
H1096       H  0.29773035  0.25175216  0.38657592     0.12300
C1097       C  0.63059465  0.90718197  0.02807842     0.18700
C1098       C  0.59543038  0.87633757  0.02072348    -0.10500
C1099       C  0.55835460  0.87749121  0.02072462    -0.11300
C1100       C  0.55623471  0.90951235  0.02805763     0.20200
C1101       C  0.59166010  0.94082464  0.03516911    -0.13300
C1102       C  0.62875579  0.93968095  0.03516180    -0.11600
C1103       C  0.51702002  0.90857030  0.02902154     0.01200
C1104       C  0.48283741  0.90452862  0.03038014    -0.31600
C1105       C  0.66847254  0.90545723  0.02844523     0.02600
C1106       C  0.70090453  0.90537816  0.02863916    -0.33300
H1107       H  0.59651260  0.85115454  0.01515735     0.13600
H1108       H  0.53113879  0.85301714  0.01523728     0.13400
H1109       H  0.59039553  0.96564796  0.04092580     0.13300
H1110       H  0.65580937  0.96379860  0.04083252     0.12300
C1111       C  0.31885139  0.78563819  0.08160666     0.18700
C1112       C  0.33303341  0.80565955  0.09510726    -0.10500
C1113       C  0.31935469  0.78284215  0.10810465    -0.11300
C1114       C  0.29134648  0.73972285  0.10774350     0.20200
C1115       C  0.27665460  0.71975649  0.09424928    -0.13300
C1116       C  0.29036394  0.74259980  0.08123522    -0.11600
C1117       C  0.27844265  0.71590735  0.12115972     0.01200
C1118       C  0.26781959  0.69557894  0.13228722    -0.31600
C1119       C  0.33503131  0.80914698  0.06824158     0.02600
C1120       C  0.35152821  0.83037963  0.05758181    -0.33300
H1121       H  0.35512970  0.83885017  0.09558142     0.13600
H1122       H  0.33100620  0.79875218  0.11842277     0.13400
H1123       H  0.25500153  0.68646457  0.09378068     0.13300
H1124       H  0.27919124  0.72662150  0.07090256     0.12300
C1125       C  0.45099156  0.07323508  0.93126596     0.18700
C1126       C  0.41223064  0.03656749  0.92980648    -0.10500
C1127       C  0.39460018  0.00951585  0.94168038    -0.11300
C1128       C  0.41568705  0.01900427  0.95506293     0.20200
C1129       C  0.45458420  0.05548155  0.95645966    -0.13300
C1130       C  0.47217862  0.08250325  0.94460554    -0.11600
C1131       C  0.39664307  0.99285148  0.96762419     0.01200
C1132       C  0.38100928  0.97407485  0.97875326    -0.31600
C1133       C  0.46859274  0.10181673  0.91921583     0.02600
C1134       C  0.48259257  0.12608658  0.90919347    -0.33300
H1135       H  0.39548197  0.02913877  0.91955619     0.13600
H1136       H  0.36436061  0.98159037  0.94048835     0.13400
H1137       H  0.47103305  0.06332725  0.96677464     0.13300
H1138       H  0.50207285  0.11080531  0.94588515     0.12300
C1139       C  0.12385603  0.93505353  0.02160207     0.18700
C1140       C  0.13609934  0.92524083  0.00845508    -0.10500
C1141       C  0.17502748  0.92819860  0.00733279    -0.11300
C1142       C  0.20202240  0.94101307  0.01934086     0.20200
C1143       C  0.18989889  0.95100883  0.03249877    -0.13300
C1144       C  0.15087461  0.94804680  0.03362329    -0.11600
C1145       C  0.24190539  0.94356880  0.01799486     0.01200
C1146       C  0.27425056  0.94435671  0.01561476    -0.31600
C1147       C  0.08350455  0.93150914  0.02270191     0.02600
C1148       C  0.04959586  0.92836529  0.02332549    -0.33300
H1149       H  0.11551250  0.91519121  0.99908974     0.13600
H1150       H  0.18405456  0.92040512  0.99710502     0.13400
H1151       H  0.21049487  0.96096565  0.04185813     0.13300
H1152       H  0.14173634  0.95574180  0.04384600     0.12300
C1153       C  0.29308404  0.49865501  0.61568614     0.18700
C1154       C  0.33362887  0.50503647  0.61628081    -0.10500
C1155       C  0.35048212  0.49569377  0.60417851    -0.11300
C1156       C  0.32688749  0.47984460  0.59140526     0.20200
C1157       C  0.28639664  0.47354196  0.59080771    -0.13300
C1158       C  0.26955119  0.48288391  0.60290386    -0.11600
C1159       C  0.34467599  0.47148502  0.57875733     0.01200
C1160       C  0.36040967  0.46710660  0.56787413    -0.31600
C1161       C  0.27593690  0.50896069  0.62806967     0.02600
C1162       C  0.26251053  0.51877337  0.63839681    -0.33300
H1163       H  0.35225808  0.51740622  0.62606218     0.13600
H1164       H  0.38194268  0.50104383  0.60475219     0.13400
H1165       H  0.26794670  0.46163881  0.58096880     0.13300
H1166       H  0.23827637  0.47799944  0.60226504     0.12300
C1167       C  0.62320822  0.68160390  0.52413455     0.18700
C1168       C  0.59895074  0.67840757  0.53629951    -0.10500
C1169       C  0.55909755  0.64363032  0.53794160    -0.11300
C1170       C  0.54334072  0.61195552  0.52741525     0.20200
C1171       C  0.56725628  0.61551258  0.51511465    -0.13300
C1172       C  0.60713041  0.65031058  0.51347070    -0.11600
C1173       C  0.50371325  0.57482847  0.52968295     0.01200
C1174       C  0.47164568  0.54318014  0.53238705    -0.31600
C1175       C  0.66483814  0.71659604  0.52279177     0.02600
C1176       C  0.69946077  0.74657902  0.52221489    -0.33300
H1177       H  0.61107137  0.70246982  0.54460111     0.13600
H1178       H  0.54089982  0.64108132  0.54752439     0.13400
H1179       H  0.55539306  0.59109081  0.50694705     0.13300
H1180       H  0.62561630  0.65252541  0.50401728     0.12300
C1181       C  0.18998552  0.22849797  0.51873480     0.18700
C1182       C  0.15968115  0.22063148  0.50815952    -0.10500
C1183       C  0.12081076  0.18406285  0.50881841    -0.11300
C1184       C  0.11219686  0.15528259  0.52005021     0.20200
C1185       C  0.14231666  0.16343766  0.53072940    -0.13300
C1186       C  0.18116239  0.19998434  0.53007040    -0.11600
C1187       C  0.07296801  0.11685268  0.52042298     0.01200
C1188       C  0.04062343  0.08409973  0.52075617    -0.31600
C1189       C  0.23072997  0.26481698  0.51760354     0.02600
C1190       C  0.26563122  0.29394927  0.51639753    -0.33300
H1191       H  0.16630900  0.24243359  0.49931677     0.13600
H1192       H  0.09773093  0.17798787  0.50049441     0.13400
H1193       H  0.13595659  0.14132486  0.53944117     0.13300
H1194       H  0.20447704  0.20572230  0.53826234     0.12300
C1195       C  0.46292623  0.31575937  0.44350454     0.18700
C1196       C  0.45807532  0.29379384  0.45647505    -0.10500
C1197       C  0.44390370  0.30397033  0.46910619    -0.11300
C1198       C  0.43459818  0.33616970  0.46881824     0.20200
C1199       C  0.44000171  0.35842849  0.45589889    -0.13300
C1200       C  0.45414666  0.34827509  0.44329323    -0.11600
C1201       C  0.41726322  0.34486921  0.48147789     0.01200
C1202       C  0.39982793  0.35049956  0.49157026    -0.31600
C1203       C  0.47574004  0.30446628  0.43027188     0.02600
C1204       C  0.48558631  0.29573564  0.41884818    -0.33300
H1205       H  0.46468112  0.26852168  0.45677068     0.13600
H1206       H  0.43958152  0.28635371  0.47900876     0.13400
H1207       H  0.43265702  0.38318416  0.45550967     0.13300
H1208       H  0.45769774  0.36540432  0.43332837     0.12300
C1209       C  0.62406598  0.40583531  0.77539458     0.18700
C1210       C  0.62443178  0.38632345  0.76235126    -0.10500
C1211       C  0.63800487  0.40932774  0.74941163    -0.11300
C1212       C  0.65125715  0.45198321  0.74942838     0.20200
C1213       C  0.65074072  0.47146994  0.76245965    -0.13300
C1214       C  0.63716714  0.44846243  0.77540243    -0.11600
C1215       C  0.66724964  0.47613377  0.73626038     0.01200
C1216       C  0.68342651  0.49719887  0.72558945    -0.31600
C1217       C  0.61075378  0.38221573  0.78876325     0.02600
C1218       C  0.59999106  0.36199372  0.79986306    -0.33300
H1219       H  0.61448985  0.35342163  0.76220478     0.13600
H1220       H  0.63855575  0.39396811  0.73943820     0.13400
H1221       H  0.66120899  0.50449223  0.76264101     0.13300
H1222       H  0.63714222  0.46394056  0.78541499     0.12300
C1223       C  0.96474785  0.57755294  0.69619785     0.18700
C1224       C  0.93156472  0.54994264  0.68728855    -0.10500
C1225       C  0.89360233  0.54927848  0.68775617    -0.11300
C1226       C  0.88859003  0.57625074  0.69712700     0.20200
C1227       C  0.92171802  0.60378584  0.70608808    -0.13300
C1228       C  0.95973025  0.60445648  0.70561848    -0.11600
C1229       C  0.84901547  0.57455279  0.69785636     0.01200
C1230       C  0.81476254  0.57049257  0.69880967    -0.31600
C1231       C  0.00386520  0.57826698  0.69559220     0.02600
C1232       C  0.03639852  0.57844790  0.69494073    -0.33300
H1233       H  0.93504131  0.52894448  0.67998839     0.13600
H1234       H  0.86812851  0.52764444  0.68085623     0.13400
H1235       H  0.91811294  0.62457034  0.71345548     0.13300
H1236       H  0.98513772  0.62588472  0.71258347     0.12300
C1237       C  0.52863952  0.59579107  0.68668563     0.18700
C1238       C  0.49880627  0.57701175  0.67562429    -0.10500
C1239       C  0.45931221  0.57250540  0.67722819    -0.11300
C1240       C  0.44944241  0.58676159  0.68990765     0.20200
C1241       C  0.47914587  0.60522268  0.70103163    -0.13300
C1242       C  0.51868496  0.60973218  0.69942581    -0.11600
C1243       C  0.40937985  0.58369732  0.69126620     0.01200
C1244       C  0.37627569  0.58227265  0.69201460    -0.31600
C1245       C  0.56939621  0.60083329  0.68481382     0.02600
C1246       C  0.60267235  0.60381689  0.68234885    -0.33300
H1247       H  0.50617362  0.56610209  0.66572985     0.13600
H1248       H  0.43664666  0.55829213  0.66853909     0.13400
H1249       H  0.47187430  0.61645858  0.71086364     0.13300
H1250       H  0.54150341  0.62427349  0.70804928     0.12300
C1251       C  0.78146233  0.74367167  0.59940649     0.18700
C1252       C  0.74831607  0.74211020  0.60723986    -0.10500
C1253       C  0.73093904  0.71492982  0.61907701    -0.11300
C1254       C  0.74653827  0.68903233  0.62319159     0.20200
C1255       C  0.77956491  0.69038949  0.61532445    -0.13300
C1256       C  0.79697092  0.71761786  0.60346008    -0.11600
C1257       C  0.72931426  0.66218875  0.63574253     0.01200
C1258       C  0.71411878  0.64205356  0.64668811    -0.31600
C1259       C  0.79921331  0.77195871  0.58722972     0.02600
C1260       C  0.81258097  0.79581744  0.57704140    -0.33300
H1261       H  0.73598873  0.76200976  0.60422382     0.13600
H1262       H  0.70551876  0.71431519  0.62508278     0.13400
H1263       H  0.79200740  0.67064728  0.61841440     0.13300
H1264       H  0.82254641  0.71844964  0.59749488     0.12300
C1265       C  0.30655642  0.00599820  0.85799812     0.18700
C1266       C  0.30614435  0.97377003  0.86607621    -0.10500
C1267       C  0.26834641  0.93734297  0.86897850    -0.11300
C1268       C  0.23093505  0.93315106  0.86381056     0.20200
C1269       C  0.23150892  0.96503587  0.85548052    -0.13300
C1270       C  0.26924121  0.00140613  0.85258704    -0.11600
C1271       C  0.19167165  0.89702743  0.86742386     0.01200
C1272       C  0.15728824  0.86849678  0.87011507    -0.31600
C1273       C  0.34486405  0.04465783  0.85595466     0.02600
C1274       C  0.37663660  0.07775299  0.85500203    -0.33300
H1275       H  0.33487704  0.97714597  0.87035421     0.13600
H1276       H  0.26821290  0.91286873  0.87544158     0.13400
H1277       H  0.20272038  0.96207833  0.85144939     0.13300
H1278       H  0.26923917  0.02622332  0.84638195     0.12300
C1279       C  0.95702857  0.84850895  0.94390400     0.18700
C1280       C  0.95871959  0.86777669  0.93056482    -0.10500
C1281       C  0.97461438  0.85871838  0.91810504    -0.11300
C1282       C  0.98891173  0.83028374  0.91887049     0.20200
C1283       C  0.98677023  0.81067126  0.93216501    -0.13300
C1284       C  0.97088874  0.81972145  0.94461501    -0.11600
C1285       C  0.00723641  0.82241170  0.90622293     0.01200
C1286       C  0.02463341  0.81685111  0.89605134    -0.31600
C1287       C  0.94220114  0.85899976  0.95693252     0.02600
C1288       C  0.93084005  0.86803407  0.96802192    -0.33300
H1289       H  0.94821195  0.89014001  0.92983281     0.13600
H1290       H  0.97621135  0.87424707  0.90792980     0.13400
H1291       H  0.99783730  0.78875851  0.93295081     0.13300
H1292       H  0.96986758  0.80462811  0.95483335     0.12300
C1293       C  0.78800991  0.48622354  0.85829446     0.18700
C1294       C  0.79431948  0.52063931  0.85003836    -0.10500
C1295       C  0.83375934  0.55647342  0.84951668    -0.11300
C1296       C  0.86703999  0.55804438  0.85725061     0.20200
C1297       C  0.86064580  0.52381813  0.86564965    -0.13300
C1298       C  0.82116476  0.48795142  0.86617459    -0.11600
C1299       C  0.90796683  0.59414495  0.85601462     0.01200
C1300       C  0.94173710  0.62440938  0.85394836    -0.31600
C1301       C  0.74789110  0.44872967  0.85829716     0.02600
C1302       C  0.71462663  0.41691050  0.85796797    -0.33300
H1303       H  0.76892027  0.51957104  0.84387382     0.13600
H1304       H  0.83844053  0.58271719  0.84293694     0.13400
H1305       H  0.88622653  0.52465887  0.87161618     0.13300
H1306       H  0.81661296  0.46143700  0.87255956     0.12300
C1307       C  0.12302823  0.66289088  0.77141822     0.18700
C1308       C  0.14838327  0.68145847  0.78365265    -0.10500
C1309       C  0.13241263  0.69104235  0.79595067    -0.11300
C1310       C  0.09097644  0.68216685  0.79609546     0.20200
C1311       C  0.06568487  0.66377155  0.78383427    -0.13300
C1312       C  0.08164810  0.65419090  0.77154121    -0.11600
C1313       C  0.07391223  0.69050026  0.80896050     0.01200
C1314       C  0.05819576  0.69499961  0.81983328    -0.31600
C1315       C  0.13911877  0.65195215  0.75888575     0.02600
C1316       C  0.15168651  0.64165448  0.74844034    -0.33300
H1317       H  0.18036576  0.68822354  0.78372690     0.13600
H1318       H  0.15224388  0.70502978  0.80537649     0.13400
H1319       H  0.03354197  0.65651823  0.78382489     0.13300
H1320       H  0.06164764  0.63972223  0.76218631     0.12300
C1321       C  0.37543369  0.16222925  0.28146978     0.18700
C1322       C  0.38737731  0.18087915  0.26769375    -0.10500
C1323       C  0.36049506  0.16339825  0.25576441    -0.11300
C1324       C  0.32151799  0.12720028  0.25753646     0.20200
C1325       C  0.30962154  0.10853335  0.27130824    -0.13300
C1326       C  0.33648910  0.12601095  0.28323319    -0.11600
C1327       C  0.29446508  0.10857098  0.24512825     0.01200
C1328       C  0.27365980  0.09249946  0.23438452    -0.31600
C1329       C  0.40311685  0.17975563  0.29378471     0.02600
C1330       C  0.42548665  0.19273531  0.30435378    -0.33300
H1331       H  0.41745487  0.20878143  0.26616664     0.13600
H1332       H  0.37017641  0.17795701  0.24515313     0.13400
H1333       H  0.27972364  0.08039342  0.27281005     0.13300
H1334       H  0.32696970  0.11121155  0.29381370     0.12300
C1335       C  0.22527685  0.90587919  0.19500046     0.18700
C1336       C  0.26130058  0.90285666  0.19408194    -0.10500
C1337       C  0.25794637  0.86377581  0.19273455    -0.11300
C1338       C  0.21856511  0.82762207  0.19230574     0.20200
C1339       C  0.18254788  0.83062777  0.19325092    -0.13300
C1340       C  0.18590148  0.86970596  0.19459626    -0.11600
C1341       C  0.21518481  0.78749203  0.19097373     0.01200
C1342       C  0.21311609  0.75415960  0.19007344    -0.31600
C1343       C  0.22866346  0.94589236  0.19690252     0.02600
C1344       C  0.23097139  0.97887866  0.19932418    -0.33300
H1345       H  0.29189261  0.93062711  0.19449298     0.13600
H1346       H  0.28598331  0.86173188  0.19206118     0.13400
H1347       H  0.15196287  0.80282205  0.19297938     0.13300
H1348       H  0.15786637  0.87170910  0.19540701     0.12300
C1349       C  0.07620636  0.02749547  0.13346046     0.18700
C1350       C  0.08000355  0.99840369  0.12482035    -0.10500
C1351       C  0.05805819  0.98458125  0.11164340    -0.11300
C1352       C  0.03224628  0.99982997  0.10701946     0.20200
C1353       C  0.02824248  0.02864904  0.11572704    -0.13300
C1354       C  0.05014048  0.04243864  0.12888112    -0.11600
C1355       C  0.00985918  0.98616598  0.09337847     0.01200
C1356       C  0.99013099  0.97537766  0.08214869    -0.31600
C1357       C  0.10034817  0.04357617  0.14666146     0.02600
C1358       C  0.12179039  0.05998771  0.15726117    -0.33300
H1359       H  0.10021159  0.98675940  0.12818887     0.13600
H1360       H  0.06141979  0.96226535  0.10503264     0.13400
H1361       H  0.00838921  0.04066228  0.11230196     0.13300
H1362       H  0.04708157  0.06508545  0.13540560     0.12300
C1363       C  0.20130680  0.33953733  0.18768086     0.18700
C1364       C  0.18278417  0.30990326  0.19880379    -0.10500
C1365       C  0.18357029  0.27265421  0.19818977    -0.11300
C1366       C  0.20294938  0.26493815  0.18646574     0.20200
C1367       C  0.22167432  0.29469192  0.17539388    -0.13300
C1368       C  0.22088934  0.33192150  0.17600753    -0.11600
C1369       C  0.20171748  0.22565650  0.18540057     0.01200
C1370       C  0.19779371  0.19156122  0.18401168    -0.31600
C1371       C  0.20022280  0.37771097  0.18819381     0.02600
C1372       C  0.20010628  0.41010878  0.18843551    -0.33300
H1373       H  0.16755446  0.31547579  0.20787954     0.13600
H1374       H  0.16872314  0.24972741  0.20675680     0.13400
H1375       H  0.23646961  0.28892086  0.16622648     0.13300
H1376       H  0.23530359  0.35462634  0.16734914     0.12300
C1377       C  0.30675028  0.99969958  0.35976433     0.18700
C1378       C  0.30996739  0.96627571  0.36534147    -0.10500
C1379       C  0.27599370  0.92555244  0.36444359    -0.11300
C1380       C  0.23870096  0.91815909  0.35797086     0.20200
C1381       C  0.23531094  0.95167907  0.35263514    -0.13300
C1382       C  0.26923046  0.99232761  0.35352482    -0.11600
C1383       C  0.20436538  0.87627500  0.35614380     0.01200
C1384       C  0.17449548  0.84258778  0.35350188    -0.31600
C1385       C  0.34228716  0.04131270  0.35998519     0.02600
C1386       C  0.37264667  0.07578605  0.35987969    -0.33300
H1387       H  0.33887643  0.97162642  0.37017229     0.13600
H1388       H  0.27900957  0.89986794  0.36856933     0.13400
H1389       H  0.20665740  0.94630349  0.34757361     0.13300
H1390       H  0.26640094  0.01789475  0.34916021     0.12300
C1391       C  0.12962053  0.66956741  0.26755060     0.18700
C1392       C  0.12182820  0.64722585  0.28061372    -0.10500
C1393       C  0.11229880  0.66156623  0.29335602    -0.11300
C1394       C  0.11044560  0.69836173  0.29313695     0.20200
C1395       C  0.11741196  0.72025011  0.28001116    -0.13300
C1396       C  0.12695152  0.70591571  0.26726898    -0.11600
C1397       C  0.10377078  0.71492931  0.30648079     0.01200
C1398       C  0.10080612  0.73047882  0.31767609    -0.31600
C1399       C  0.14155112  0.65585195  0.25460212     0.02600
C1400       C  0.15227566  0.64428522  0.24397925    -0.33300
H1401       H  0.12377681  0.61909668  0.28100214     0.13600
H1402       H  0.10714466  0.64439451  0.30342228     0.13400
H1403       H  0.11623618  0.74880544  0.27968691     0.13300
H1404       H  0.13288912  0.72352296  0.25726605     0.12300
C1405       C  0.94348432  0.83148098  0.44092334     0.18700
C1406       C  0.91474051  0.79263015  0.43496673    -0.10500
C1407       C  0.92379985  0.77927573  0.42191628    -0.11300
C1408       C  0.96164164  0.80468066  0.41470342     0.20200
C1409       C  0.99028461  0.84366066  0.42060311    -0.13300
C1410       C  0.98121079  0.85703467  0.43366599    -0.11600
C1411       C  0.97139541  0.78985145  0.40157224     0.01200
C1412       C  0.97767519  0.77391038  0.39113034    -0.31600
C1413       C  0.93422263  0.84499511  0.45445985     0.02600
C1414       C  0.92565901  0.85597839  0.46569698    -0.33300
H1415       H  0.88545112  0.77258427  0.44044604     0.13600
H1416       H  0.90144963  0.74899860  0.41751184     0.13400
H1417       H  0.01970642  0.86352690  0.41517903     0.13300
H1418       H  0.00367613  0.88715446  0.43814218     0.12300
C1419       C  0.77825430  0.49088482  0.36094671     0.18700
C1420       C  0.78432890  0.52459506  0.35231973    -0.10500
C1421       C  0.82203215  0.56237952  0.35303676    -0.11300
C1422       C  0.85373938  0.56652888  0.36237486     0.20200
C1423       C  0.84795725  0.53258724  0.37080444    -0.13300
C1424       C  0.81024742  0.49478736  0.37008402    -0.11600
C1425       C  0.89110240  0.60630522  0.36391378     0.01200
C1426       C  0.92079379  0.64068193  0.36554741    -0.31600
C1427       C  0.73899168  0.45253622  0.36062719     0.02600
C1428       C  0.70628840  0.42015558  0.36051850    -0.33300
H1429       H  0.75977423  0.52183861  0.34520855     0.13600
H1430       H  0.82618483  0.58854077  0.34652413     0.13400
H1431       H  0.87224751  0.53557447  0.37810327     0.13300
H1432       H  0.80582180  0.46883822  0.37678146     0.12300
C1433       C  0.11368242  0.16216857  0.02691127     0.18700
C1434       C  0.11881506  0.19586827  0.01845825    -0.10500
C1435       C  0.15576715  0.23442867  0.01938751    -0.11300
C1436       C  0.18776654  0.23945934  0.02877009     0.20200
C1437       C  0.18282672  0.20563484  0.03709051    -0.13300
C1438       C  0.14588417  0.16708438  0.03616201    -0.11600
C1439       C  0.22495539  0.27964076  0.03026483     0.01200
C1440       C  0.25519277  0.31380826  0.03185315    -0.31600
C1441       C  0.07509671  0.12287486  0.02634392     0.02600
C1442       C  0.04261375  0.09010389  0.02609189    -0.33300
H1443       H  0.09412339  0.19245225  0.01127868     0.13600
H1444       H  0.15918490  0.26040003  0.01293378     0.13400
H1445       H  0.20730062  0.20919987  0.04441206     0.13300
H1446       H  0.14226082  0.14127279  0.04275953     0.12300
C1447       C  0.30449127  0.47887225  0.08176152     0.08500
C1448       C  0.33378373  0.49599923  0.09307977    -0.10500
C1449       C  0.32344761  0.50825865  0.10613913    -0.11300
C1450       C  0.28372862  0.50336442  0.10795959     0.20200
C1451       C  0.25468963  0.48674842  0.09657420    -0.13300
C1452       C  0.26501011  0.47452107  0.08353763    -0.11600
C1453       C  0.27245099  0.51502935  0.12147918     0.01200
C1454       C  0.26205458  0.52489125  0.13256391    -0.31600
C1455       C  0.31373832  0.46332342  0.06869874     0.02600
C1456       C  0.31861211  0.44668118  0.05815911    -0.33300
H1457       H  0.36431682  0.49928611  0.09189390     0.13600
H1458       H  0.34621567  0.52111641  0.11484830     0.13400
H1459       H  0.22392026  0.48285182  0.09783025     0.13300
H1460       H  0.24197988  0.46108485  0.07492687     0.12300
C1461       C  0.46048248  0.32972353  0.93425361     0.18700
C1462       C  0.46357321  0.36887802  0.93335509    -0.10500
C1463       C  0.45355807  0.38531668  0.94540603    -0.11300
C1464       C  0.44032526  0.36275033  0.95846554     0.20200
C1465       C  0.43637117  0.32317529  0.95928131    -0.13300
C1466       C  0.44639206  0.30670910  0.94721200    -0.11600
C1467       C  0.43339067  0.38140988  0.97120702     0.01200
C1468       C  0.43071046  0.39894310  0.98191934    -0.31600
C1469       C  0.47306050  0.31396903  0.92204044     0.02600
C1470       C  0.48458312  0.30212043  0.91171678    -0.33300
H1471       H  0.47441358  0.38701914  0.92342047     0.13600
H1472       H  0.45693712  0.41598811  0.94463028     0.13400
H1473       H  0.42635668  0.30543610  0.96931755     0.13300
H1474       H  0.44384988  0.27640951  0.94806698     0.12300
C1475       C  0.64351388  0.66901079  0.02517707     0.18700
C1476       C  0.63622499  0.63648263  0.03468942    -0.10500
C1477       C  0.60138662  0.59672819  0.03266662    -0.11300
C1478       C  0.57381897  0.58944367  0.02111665     0.20200
C1479       C  0.58089717  0.62213440  0.01174191    -0.13300
C1480       C  0.61564609  0.66179465  0.01376170    -0.11600
C1481       C  0.53840047  0.54854947  0.01868510     0.01200
C1482       C  0.50789638  0.51544740  0.01592042    -0.31600
C1483       C  0.68028230  0.70940445  0.02670476     0.02600
C1484       C  0.71144618  0.74320654  0.02718983    -0.33300
H1485       H  0.65766219  0.64172928  0.04353404     0.13600
H1486       H  0.59616394  0.57168186  0.03999670     0.13400
H1487       H  0.55974683  0.61686130  0.00279507     0.13300
H1488       H  0.62104519  0.68669406  0.00632660     0.12300
C1489       C  0.03785629  0.48732749  0.61561917     0.18700
C1490       C  0.04560830  0.51227099  0.60322808    -0.10500
C1491       C  0.01959611  0.49635133  0.59101628    -0.11300
C1492       C  0.98566767  0.45542651  0.59114288     0.20200
C1493       C  0.97792309  0.43053351  0.60354186    -0.13300
C1494       C  0.00391327  0.44643986  0.61574402    -0.11600
C1495       C  0.95954644  0.43845459  0.57843656     0.01200
C1496       C  0.93858558  0.42279452  0.56769503    -0.31600
C1497       C  0.06491930  0.50339831  0.62813179     0.02600
C1498       C  0.08761236  0.51624273  0.63861524    -0.33300
H1499       H  0.07182093  0.54389290  0.60298491     0.13600
H1500       H  0.02606189  0.51582449  0.58146676     0.13400
H1501       H  0.95195409  0.39877587  0.60374274     0.13300
H1502       H  0.99766346  0.42681676  0.62523952     0.12300
C1503       C  0.88273023  0.15898113  0.52301963     0.18700
C1504       C  0.92164115  0.19460738  0.52559029    -0.10500
C1505       C  0.92459502  0.23336928  0.52760091    -0.11300
C1506       C  0.88865978  0.23664902  0.52704026     0.20200
C1507       C  0.84983450  0.20110317  0.52434501    -0.13300
C1508       C  0.84688064  0.16236394  0.52233619    -0.11600
C1509       C  0.89135642  0.27611198  0.52973607     0.01200
C1510       C  0.89316266  0.30865072  0.53263414    -0.31600
C1511       C  0.87932464  0.11874923  0.52164047     0.02600
C1512       C  0.87656943  0.08499131  0.52113138    -0.33300
H1513       H  0.94955095  0.19232807  0.52621208     0.13600
H1514       H  0.95474935  0.26063163  0.52974939     0.13400
H1515       H  0.82183163  0.20325850  0.52395938     0.13300
H1516       H  0.81662773  0.13500209  0.52042673     0.12300
C1517       C  0.87609679  0.67527046  0.52233367     0.18700
C1518       C  0.84345719  0.64038513  0.52919732    -0.10500
C1519       C  0.84167431  0.60189988  0.52864777    -0.11300
C1520       C  0.87253202  0.59803499  0.52124015     0.20200
C1521       C  0.90571181  0.63310777  0.51462151    -0.13300
C1522       C  0.90750518  0.67168439  0.51517523    -0.11600
C1523       C  0.86856853  0.55756010  0.51980547     0.01200
C1524       C  0.86196832  0.52245065  0.51833435    -0.31600
C1525       C  0.87634607  0.71419077  0.52226485     0.02600
C1526       C  0.87510069  0.74603504  0.52220689    -0.33300
H1527       H  0.81901146  0.64277423  0.53475744     0.13600
H1528       H  0.81580741  0.57498058  0.53375904     0.13400
H1529       H  0.92967580  0.63046038  0.50881807     0.13300
H1530       H  0.93290246  0.69845791  0.50982451     0.12300
C1531       C  0.69395091  0.33040896  0.44130851     0.18700
C1532       C  0.71648363  0.31246652  0.44686100    -0.10500
C1533       C  0.73815405  0.32664323  0.46007475    -0.11300
C1534       C  0.73738060  0.35881013  0.46783545     0.20200
C1535       C  0.71486313  0.37673212  0.46226593    -0.13300
C1536       C  0.69322782  0.36257957  0.44906898    -0.11600
C1537       C  0.76076941  0.37454926  0.48121594     0.01200
C1538       C  0.78179939  0.39044660  0.49195276    -0.31600
C1539       C  0.67124987  0.31574995  0.42775632     0.02600
C1540       C  0.65127512  0.30418586  0.41659055    -0.33300
H1541       H  0.71732409  0.28758695  0.44098194     0.13600
H1542       H  0.75563412  0.31267934  0.46419687     0.13400
H1543       H  0.71419361  0.40178262  0.46809043     0.13300
H1544       H  0.67595957  0.37674031  0.44491401     0.12300
C1545       C  0.56837021  0.57504894  0.86080911     0.18700
C1546       C  0.57107665  0.55511945  0.87337327    -0.10500
C1547       C  0.56658567  0.51549851  0.87239507    -0.11300
C1548       C  0.55932098  0.49559478  0.85884652     0.20200
C1549       C  0.55708143  0.51569786  0.84624603    -0.13300
C1550       C  0.56156674  0.55537308  0.84722646    -0.11600
C1551       C  0.55389838  0.45447363  0.85794424     0.01200
C1552       C  0.54994867  0.42022615  0.85750070    -0.31600
C1553       C  0.57158329  0.61517956  0.86202774     0.02600
C1554       C  0.57352526  0.64816656  0.86409033    -0.33300
H1555       H  0.57629969  0.57006108  0.88393132     0.13600
H1556       H  0.56846720  0.50027554  0.88219957     0.13400
H1557       H  0.55157000  0.50059848  0.83571108     0.13300
H1558       H  0.55939179  0.57050897  0.83744852     0.12300
C1559       C  0.70938929  0.82912577  0.94770313     0.18700
C1560       C  0.72612514  0.84498054  0.93390100    -0.10500
C1561       C  0.70142049  0.82881906  0.92138066    -0.11300
C1562       C  0.65975690  0.79671201  0.92255543     0.20200
C1563       C  0.64293231  0.78105880  0.93635571    -0.13300
C1564       C  0.66763113  0.79721956  0.94887498    -0.11600
C1565       C  0.63479820  0.77893253  0.90959734     0.01200
C1566       C  0.61503965  0.76292965  0.89863437    -0.31600
C1567       C  0.73529243  0.84468840  0.96059200     0.02600
C1568       C  0.75722843  0.85683845  0.97132897    -0.33300
H1569       H  0.75835945  0.86952262  0.93280522     0.13600
H1570       H  0.71491080  0.84108318  0.91078414     0.13400
H1571       H  0.61086139  0.75611671  0.93742839     0.13300
H1572       H  0.65428935  0.78454745  0.95944958     0.12300
C1573       C  0.40724865  0.69009387  0.79983247     0.18700
C1574       C  0.42302702  0.68012015  0.78757715    -0.10500
C1575       C  0.40003823  0.66763038  0.77462493    -0.11300
C1576       C  0.36117431  0.66511089  0.77384509     0.20200
C1577       C  0.34530545  0.67499904  0.78610614    -0.13300
C1578       C  0.36831938  0.68750849  0.79906882    -0.11600
C1579       C  0.33766978  0.65232059  0.76047481     0.01200
C1580       C  0.31793766  0.64129833  0.74929078    -0.31600
C1581       C  0.43205237  0.70520590  0.81288481     0.02600
C1582       C  0.45439323  0.72130857  0.82328799    -0.33300
H1583       H  0.45324629  0.68238106  0.78799440     0.13600
H1584       H  0.41262615  0.66011218  0.76521048     0.13400
H1585       H  0.31530244  0.67321212  0.78562455     0.13300
H1586       H  0.35597607  0.69552499  0.80843175     0.12300
C1587       C  0.53688013  0.00430252  0.85309809     0.18700
C1588       C  0.57161820  0.00116815  0.85710861    -0.10500
C1589       C  0.56972264  0.96257309  0.85652857    -0.11300
C1590       C  0.53307833  0.92695670  0.85193793     0.20200
C1591       C  0.49824376  0.93002025  0.84804297    -0.13300
C1592       C  0.50013545  0.96858245  0.84862243    -0.11600
C1593       C  0.53128964  0.88740994  0.85089471     0.01200
C1594       C  0.52792057  0.85356035  0.84949128    -0.31600
C1595       C  0.53898015  0.04413483  0.85345031     0.02600
C1596       C  0.54041709  0.07734365  0.85368423    -0.33300
H1597       H  0.60018664  0.02855792  0.86059546     0.13600
H1598       H  0.59684843  0.96056250  0.85954968     0.13400
H1599       H  0.46975494  0.90267816  0.84446117     0.13300
H1600       H  0.47307292  0.97059228  0.84550504     0.12300
C1601       C  0.96647827  0.33959787  0.69100492     0.18700
C1602       C  0.94252227  0.33161077  0.67834430    -0.10500
C1603       C  0.90836474  0.29182823  0.67584784    -0.11300
C1604       C  0.89808066  0.25991255  0.68599803     0.20200
C1605       C  0.92181496  0.26798612  0.69871714    -0.13300
C1606       C  0.95598632  0.30778078  0.70121401    -0.11600
C1607       C  0.86319757  0.21895129  0.68332932     0.01200
C1608       C  0.83355046  0.18505553  0.68085378    -0.31600
C1609       C  0.00315284  0.37970173  0.69309376     0.02600
C1610       C  0.03528007  0.41248489  0.69412450    -0.33300
H1611       H  0.95056459  0.35594417  0.67033504     0.13600
H1612       H  0.89017201  0.28588045  0.66598103     0.13400
H1613       H  0.91407959  0.24350307  0.70663278     0.13300
H1614       H  0.97450505  0.31359582  0.71098796     0.12300
C1615       C  0.79355472  0.99925894  0.60054172     0.18700
C1616       C  0.77145031  0.02037762  0.59879961    -0.10500
C1617       C  0.76120371  0.03613503  0.61097944    -0.11300
C1618       C  0.77294646  0.03078131  0.62496407     0.20200
C1619       C  0.79467102  0.00927066  0.62671269    -0.13300
C1620       C  0.80491896  0.99352479  0.61453725    -0.11600
C1621       C  0.76440865  0.04884442  0.63745855     0.01200
C1622       C  0.76026680  0.06548351  0.64811969    -0.31600
C1623       C  0.80549260  0.98444831  0.58796471     0.02600
C1624       C  0.81612528  0.97272703  0.57741268    -0.33300
H1625       H  0.76257562  0.02507032  0.58802815     0.13600
H1626       H  0.74460327  0.05289165  0.60948042     0.13400
H1627       H  0.80411612  0.00512309  0.63746101     0.13300
H1628       H  0.82208712  0.97732809  0.61601828     0.12300
C1629       C  0.44817436  0.82045180  0.69406385     0.18700
C1630       C  0.45035391  0.85037289  0.70389229    -0.10500
C1631       C  0.48765227  0.88813745  0.70566990    -0.11300
C1632       C  0.52302322  0.89618668  0.69764665     0.20200
C1633       C  0.52094781  0.86626063  0.68782578    -0.13300
C1634       C  0.48357061  0.82841026  0.68604614    -0.11600
C1635       C  0.56103734  0.93548399  0.69938731     0.01200
C1636       C  0.59140686  0.96947949  0.70105991    -0.31600
C1637       C  0.40957770  0.78165283  0.69234774     0.02600
C1638       C  0.37662707  0.74950504  0.69158939    -0.33300
H1639       H  0.42320733  0.84452675  0.71016036     0.13600
H1640       H  0.48888546  0.91109736  0.71326554     0.13400
H1641       H  0.54810249  0.87222492  0.68154138     0.13300
H1642       H  0.48224770  0.80545922  0.67843000     0.12300
C1643       C  0.62290692  0.17047189  0.77541563     0.18700
C1644       C  0.66369087  0.17913504  0.77275701    -0.10500
C1645       C  0.67242338  0.16283977  0.76035125    -0.11300
C1646       C  0.64040078  0.13786746  0.75056690     0.20200
C1647       C  0.59978599  0.12964874  0.75317032    -0.13300
C1648       C  0.59107641  0.14590219  0.76554366    -0.11600
C1649       C  0.64851410  0.11933754  0.73811652     0.01200
C1650       C  0.65265697  0.10141286  0.72784669    -0.31600
C1651       C  0.61317605  0.18574020  0.78839448     0.02600
C1652       C  0.60305197  0.19695802  0.79920293    -0.33300
H1653       H  0.68855510  0.19805030  0.78032877     0.13600
H1654       H  0.70392954  0.16929989  0.75847896     0.13400
H1655       H  0.57475679  0.11028377  0.74571695     0.13300
H1656       H  0.55943617  0.13894488  0.76749354     0.12300
loop_ 
_geom_bond_atom_site_label_1 
_geom_bond_atom_site_label_2 
_geom_bond_distance 
_geom_bond_site_symmetry_2 
_ccdc_geom_bond_type 
C1            C2   1.395       .  A
C1            C6   1.401       .  A
C1         C1650   1.442       .  S
C2            C3   1.395       .  A
C2            H7   1.085       .  S
C3            C4   1.400       .  A
C3         C1636   1.439   1_545  S
C4            C5   1.415       .  A
C4            H8   1.080       .  S
C5            C6   1.419       .  A
C5           C14   1.510       .  S
C6            H9   1.080       .  S
C10          C11   1.395       .  A
C10          C15   1.404       .  A
C10        C1622   1.442       .  S
C11          C12   1.394       .  A
C11          H16   1.085       .  S
C12          C13   1.399       .  A
C12        C1608   1.437       .  S
C13          C14   1.414       .  A
C13          H17   1.080       .  S
C14          C15   1.419       .  A
C15          H18   1.080       .  S
C19          C20   1.403       .  A
C19          C24   1.394       .  A
C19        C1582   1.441       .  S
C20          C21   1.419       .  A
C20          H25   1.080       .  S
C21          C22   1.415       .  A
C21          C30   1.508       .  S
C22          C23   1.400       .  A
C22          H26   1.080       .  S
C23          C24   1.394       .  A
C23        C1594   1.439       .  S
C24          H27   1.085       .  S
C28          C29   1.404       .  A
C28          C33   1.395       .  A
C28        C1566   1.445       .  S
C29          C30   1.419       .  A
C29          H34   1.080       .  S
C30          C31   1.414       .  A
C31          C32   1.400       .  A
C31          H35   1.081       .  S
C32          C33   1.395       .  A
C32        C1554   1.439       .  S
C33          H36   1.085       .  S
C37          C38   1.404       .  A
C37          C42   1.397       .  A
C37        C1538   1.446       .  S
C38          C39   1.418       .  A
C38          H43   1.081       .  S
C39          C40   1.414       .  A
C39          C50   1.507       .  S
C40          C41   1.400       .  A
C40          H44   1.081       .  S
C41          C42   1.396       .  A
C41        C1524   1.441       .  S
C42          H45   1.085       .  S
C46          C47   1.395       .  A
C46          C51   1.403       .  A
C46        C1496   1.443       .  S
C47          C48   1.395       .  A
C47          H52   1.085       .  S
C48          C49   1.401       .  A
C48        C1510   1.439       .  S
C49          C50   1.414       .  A
C49          H53   1.081       .  S
C50          C51   1.418       .  A
C51          H54   1.081       .  S
C55          C56   1.404   1_556  A
C55          C60   1.398       .  A
C55        C1468   1.447       .  S
C56          C57   1.419       .  A
C56          H61   1.080   1_554  S
C57          C58   1.413       .  A
C57          C68   1.509       .  S
C58          C59   1.400       .  A
C58          H62   1.080       .  S
C59          C60   1.397   1_554  A
C59        C1482   1.440       .  S
C60          H63   1.085       .  S
C64          C65   1.396       .  A
C64          C69   1.404       .  A
C64        C1456   1.445       .  S
C65          C66   1.395       .  A
C65          H70   1.085       .  S
C66          C67   1.399       .  A
C66        C1440   1.440       .  S
C67          C68   1.414       .  A
C67          H71   1.080       .  S
C68          C69   1.420       .  A
C69          H72   1.080       .  S
C73          C74   1.396       .  A
C73          C78   1.405   1_655  A
C73        C1412   1.444       .  S
C74          C75   1.395       .  A
C74          H79   1.085       .  S
C75          C76   1.397       .  A
C75        C1426   1.436       .  S
C76          C77   1.411   1_655  A
C76          H80   1.081       .  S
C77          C78   1.419       .  A
C77          C84   1.504       .  S
C78          H81   1.081       .  S
C82          C83   1.403       .  A
C82          C87   1.398       .  A
C82        C1398   1.446       .  S
C83          C84   1.417       .  A
C83          H88   1.081       .  S
C84          C85   1.411       .  A
C85          C86   1.400       .  A
C85          H89   1.081       .  S
C86          C87   1.398       .  A
C86        C1384   1.440       .  S
C87          H90   1.085       .  S
C91          C92   1.395       .  A
C91          C96   1.403       .  A
C91        C1358   1.444       .  S
C92          C93   1.396       .  A
C92          H97   1.085       .  S
C93          C94   1.401       .  A
C93        C1370   1.440       .  S
C94          C95   1.415       .  A
C94          H98   1.081       .  S
C95          C96   1.418       .  A
C95         C102   1.507       .  S
C96          H99   1.081       .  S
C100        C101   1.404       .  A
C100        C105   1.395       .  A
C100       C1328   1.443       .  S
C101        C102   1.418       .  A
C101        H106   1.081       .  S
C102        C103   1.414       .  A
C103        C104   1.400       .  A
C103        H107   1.081       .  S
C104        C105   1.394       .  A
C104       C1344   1.438   1_545  S
C105        H108   1.085       .  S
C109        C110   1.395       .  A
C109        C114   1.403       .  A
C109       C1314   1.445       .  S
C110        C111   1.396   1_455  A
C110        H115   1.085   1_455  S
C111        C112   1.400       .  A
C111       C1300   1.438       .  S
C112        C113   1.412   1_655  A
C112        H116   1.081       .  S
C113        C114   1.419       .  A
C113        C120   1.506       .  S
C114        H117   1.081       .  S
C118        C119   1.405       .  A
C118        C123   1.397       .  A
C118       C1286   1.447       .  S
C119        C120   1.419       .  A
C119        H124   1.081   1_455  S
C120        C121   1.411       .  A
C121        C122   1.398       .  A
C121        H125   1.081       .  S
C122        C123   1.397       .  A
C122       C1272   1.437       .  S
C123        H126   1.085       .  S
C127        C128   1.405       .  A
C127        C132   1.396       .  A
C127       C1258   1.444       .  S
C128        C129   1.418       .  A
C128        H133   1.081       .  S
C129        C130   1.415       .  A
C129        C138   1.508       .  S
C130        C131   1.399       .  A
C130        H134   1.081       .  S
C131        C132   1.395       .  A
C131       C1246   1.440       .  S
C132        H135   1.085       .  S
C136        C137   1.402       .  A
C136        C141   1.394       .  A
C136       C1216   1.443       .  S
C137        C138   1.418       .  A
C137        H142   1.081       .  S
C138        C139   1.416       .  A
C139        C140   1.403       .  A
C139        H143   1.081       .  S
C140        C141   1.395       .  A
C140       C1230   1.441       .  S
C141        H144   1.085       .  S
C145        C146   1.403       .  A
C145        C150   1.395       .  A
C145       C1202   1.442       .  S
C146        C147   1.417       .  A
C146        H151   1.081       .  S
C147        C148   1.412       .  A
C147        C156   1.503       .  S
C148        C149   1.399       .  A
C148        H152   1.081       .  S
C149        C150   1.395       .  A
C149       C1190   1.436       .  S
C150        H153   1.085       .  S
C154        C155   1.404       .  A
C154        C159   1.395       .  A
C154       C1160   1.444       .  S
C155        C156   1.418       .  A
C155        H160   1.081       .  S
C156        C157   1.412       .  A
C157        C158   1.399       .  A
C157        H161   1.082       .  S
C158        C159   1.395       .  A
C158       C1174   1.437       .  S
C159        H162   1.085       .  S
C163        C164   1.396       .  A
C163        C168   1.403   1_556  A
C163       C1132   1.443       .  S
C164        C165   1.396   1_556  A
C164        H169   1.085       .  S
C165        C166   1.402       .  A
C165       C1146   1.442       .  S
C166        C167   1.415       .  A
C166        H170   1.081       .  S
C167        C168   1.417       .  A
C167        C174   1.506       .  S
C168        H171   1.082   1_554  S
C172        C173   1.404       .  A
C172        C177   1.398       .  A
C172       C1120   1.449       .  S
C173        C174   1.418       .  A
C173        H178   1.081       .  S
C174        C175   1.415       .  A
C175        C176   1.402       .  A
C175        H179   1.082       .  S
C176        C177   1.398       .  A
C176       C1104   1.443       .  S
C177        H180   1.085       .  S
C181        C182   1.403       .  A
C181        C186   1.395       .  A
C181       C1076   1.445       .  S
C182        C183   1.419       .  A
C182        H187   1.081   1_455  S
C183        C184   1.416       .  A
C183        C192   1.510       .  S
C184        C185   1.404       .  A
C184        H188   1.081       .  S
C185        C186   1.396       .  A
C185       C1090   1.443       .  S
C186        H189   1.085       .  S
C190        C191   1.407       .  A
C190        C195   1.398   1_455  A
C190       C1062   1.448       .  S
C191        C192   1.419       .  A
C191        H196   1.081       .  S
C192        C193   1.415   1_455  A
C193        C194   1.400       .  A
C193        H197   1.081       .  S
C194        C195   1.396       .  A
C194       C1048   1.442       .  S
C195        H198   1.085       .  S
C199        C200   1.395       .  A
C199        C204   1.404       .  A
C199       C1020   1.445       .  S
C200        C201   1.395       .  A
C200        H205   1.085       .  S
C201        C202   1.400       .  A
C201       C1034   1.438       .  S
C202        C203   1.413       .  A
C202        H206   1.080       .  S
C203        C204   1.420       .  A
C203        C210   1.508       .  S
C204        H207   1.080       .  S
C208        C209   1.405       .  A
C208        C213   1.395   1_545  A
C208        C992   1.445       .  S
C209        C210   1.420       .  A
C209        H214   1.080       .  S
C210        C211   1.413       .  A
C211        C212   1.398   1_545  A
C211        H215   1.081       .  S
C212        C213   1.394       .  A
C212       C1006   1.436       .  S
C213        H216   1.085       .  S
C217        C218   1.404       .  A
C217        C222   1.395       .  A
C217        C978   1.443       .  S
C218        C219   1.417       .  A
C218        H223   1.081       .  S
C219        C220   1.415       .  A
C219        C230   1.506       .  S
C220        C221   1.401       .  A
C220        H224   1.081       .  S
C221        C222   1.395       .  A
C221        C964   1.440       .  S
C222        H225   1.085       .  S
C226        C227   1.396       .  A
C226        C231   1.403       .  A
C226        C950   1.445       .  S
C227        C228   1.396       .  A
C227        H232   1.085       .  S
C228        C229   1.401       .  A
C228        C938   1.440       .  S
C229        C230   1.414       .  A
C229        H233   1.081       .  S
C230        C231   1.417       .  A
C231        H234   1.081       .  S
C235        C236   1.396       .  A
C235        C240   1.405       .  A
C235        C922   1.447       .  S
C236        C237   1.395       .  A
C236        H241   1.085       .  S
C237        C238   1.401       .  A
C237        C908   1.442       .  S
C238        C239   1.416       .  A
C238        H242   1.080       .  S
C239        C240   1.421       .  A
C239        C248   1.513       .  S
C240        H243   1.080       .  S
C244        C245   1.397   1_545  A
C244        C249   1.406       .  A
C244        C894   1.449       .  S
C245        C246   1.396       .  A
C245        H250   1.085       .  S
C246        C247   1.401   1_565  A
C246        C882   1.441       .  S
C247        C248   1.415       .  A
C247        H251   1.080       .  S
C248        C249   1.421       .  A
C249        H252   1.080       .  S
C253        C254   1.406       .  A
C253        C258   1.397       .  A
C253        C852   1.448       .  S
C254        C255   1.419       .  A
C254        H259   1.081       .  S
C255        C256   1.416       .  A
C255        C266   1.510       .  S
C256        C257   1.402       .  A
C256        H260   1.081       .  S
C257        C258   1.397       .  A
C257        C868   1.443       .  S
C258        H261   1.085       .  S
C262        C263   1.397       .  A
C262        C267   1.403       .  A
C262        C824   1.446       .  S
C263        C264   1.397       .  A
C263        H268   1.085       .  S
C264        C265   1.404       .  A
C264        C838   1.445       .  S
C265        C266   1.416       .  A
C265        H269   1.081       .  S
C266        C267   1.418       .  A
C267        H270   1.081       .  S
C271        C272   1.405       .  A
C271        C276   1.399       .  A
C271        C798   1.449       .  S
C272        C273   1.419       .  A
C272        H277   1.081       .  S
C273        C274   1.414       .  A
C273        C284   1.508       .  S
C274        C275   1.402       .  A
C274        H278   1.081       .  S
C275        C276   1.399       .  A
C275        C810   1.444       .  S
C276        H279   1.085       .  S
C280        C281   1.395       .  A
C280        C285   1.406       .  A
C280        C784   1.446       .  S
C281        C282   1.395       .  A
C281        H286   1.085       .  S
C282        C283   1.400       .  A
C282        C768   1.440       .  S
C283        C284   1.414       .  A
C283        H287   1.081       .  S
C284        C285   1.420       .  A
C285        H288   1.081       .  S
C289        C290   1.397   1_556  A
C289        C294   1.403   1_556  A
C289        C754   1.445       .  S
C290        C291   1.397       .  A
C290        H295   1.085   1_554  S
C291        C292   1.400       .  A
C291        C740   1.441       .  S
C292        C293   1.414       .  A
C292        H296   1.081       .  S
C293        C294   1.417       .  A
C293        C302   1.505       .  S
C294        H297   1.081       .  S
C298        C299   1.395       .  A
C298        C303   1.402       .  A
C298        C712   1.442       .  S
C299        C300   1.395       .  A
C299        H304   1.085       .  S
C300        C301   1.401       .  A
C300        C728   1.439       .  S
C301        C302   1.414       .  A
C301        H305   1.081       .  S
C302        C303   1.417       .  A
C303        H306   1.081       .  S
C307        C308   1.403       .  A
C307        C312   1.396       .  A
C307        C684   1.443       .  S
C308        C309   1.417       .  A
C308        H313   1.081       .  S
C309        C310   1.413       .  A
C309        C318   1.504       .  S
C310        C311   1.401       .  A
C310        H314   1.081       .  S
C311        C312   1.396       .  A
C311        C700   1.439       .  S
C312        H315   1.085       .  S
C316        C317   1.404   1_655  A
C316        C321   1.396       .  A
C316        C658   1.445       .  S
C317        C318   1.418       .  A
C317        H322   1.081       .  S
C318        C319   1.414   1_455  A
C319        C320   1.400       .  A
C319        H323   1.081       .  S
C320        C321   1.395       .  A
C320        C670   1.439       .  S
C321        H324   1.085       .  S
O325        C336   1.290       .  A
O325       Eu361   2.462       .  S
O326        C337   1.289       .  A
O326       Eu360   2.454       .  S
O327        C338   1.290       .  A
O327       Eu333   2.465       .  S
O328        C339   1.290       .  A
O328       Eu333   2.459       .  S
O329        C339   1.289       .  A
O329       Eu363   2.457       .  S
O330        C338   1.290       .  A
O330       Eu362   2.461       .  S
O331        C337   1.289       .  A
O331       Eu333   2.458       .  S
O332        C336   1.289       .  A
O332       Eu333   2.457       .  S
Eu333       O343   2.356       .  S
Eu333       O335   2.350       .  S
Eu333       O334   2.355       .  S
Eu333       O341   2.354       .  S
O334       Eu363   2.354       .  S
O334       Eu360   2.353       .  S
O335       Eu361   2.348       .  S
O335       Eu362   2.353       .  S
C336       C1652   1.436       .  S
C337       C1302   1.433       .  S
C338       C1218   1.438       .  S
C339        C672   1.434       .  S
H340        O341   0.965       .  S
O341       Eu362   2.359       .  S
O341       Eu360   2.360       .  S
H342        O343   0.966       .  S
O343       Eu361   2.353       .  S
O343       Eu363   2.357       .  S
O344        C367   1.290       .  A
O344       Eu360   2.464       .  S
O345        C368   1.289       .  A
O345       Eu361   2.454       .  S
O346        C369   1.290       .  A
O346       Eu362   2.463       .  S
O347        C370   1.291       .  A
O347       Eu363   2.463       .  S
O348        C371   1.290       .  A
O348       Eu363   2.464       .  S
O349        C372   1.291       .  A
O349       Eu362   2.466       .  S
O350        C373   1.288       .  A
O350       Eu364   2.451       .  S
O351        C374   1.289       .  A
O351       Eu364   2.456       .  S
O352        C373   1.291       .  A
O352       Eu362   2.466       .  S
O353        C374   1.290       .  A
O353       Eu363   2.463       .  S
O354        C369   1.289       .  A
O354       Eu360   2.454       .  S
O355        C372   1.290       .  A
O355       Eu361   2.463       .  S
O356        C371   1.290       .  A
O356       Eu361   2.462       .  S
O357        C370   1.290       .  A
O357       Eu360   2.463       .  S
O358        C367   1.290       .  A
O358       Eu364   2.465       .  S
O359        C368   1.288       .  A
O359       Eu364   2.451       .  S
Eu360       O378   2.354       .  S
Eu360       O366   2.352       .  S
Eu361       O365   2.351       .  S
Eu361       O376   2.360       .  S
Eu362       O376   2.357       .  S
Eu362       O366   2.355       .  S
Eu363       O365   2.348       .  S
Eu363       O378   2.358       .  S
Eu364       O365   2.350       .  S
Eu364       O376   2.361       .  S
Eu364       O378   2.352       .  S
Eu364       O366   2.350       .  S
C367       C1470   1.441       .  S
C368       C1274   1.430       .  S
C369       C1552   1.433       .  S
C370        C756   1.439       .  S
C371       C1596   1.437       .  S
C372        C924   1.441       .  S
C373        C698   1.435       .  S
C374       C1134   1.436       .  S
H375        O376   0.965       .  S
H377        O378   0.966       .  S
O379        C390   1.291       .  A
O379       Eu415   2.469   1_556  S
O380        C391   1.289       .  A
O380       Eu414   2.456   1_545  S
O381        C392   1.289       .  A
O381       Eu387   2.455       .  S
O382        C393   1.290   1_565  A
O382       Eu387   2.461   1_556  S
O383        C393   1.291   1_565  A
O383       Eu417   2.470   1_556  S
O384        C392   1.290       .  A
O384       Eu416   2.463       .  S
O385        C391   1.290       .  A
O385       Eu387   2.461   1_545  S
O386        C390   1.292       .  A
O386       Eu387   2.471   1_556  S
Eu387       O397   2.354       .  S
Eu387       O389   2.351       .  S
Eu387       O388   2.354       .  S
Eu387       O395   2.360       .  S
O388       Eu417   2.352       .  S
O388       Eu414   2.356       .  S
O389       Eu415   2.355       .  S
O389       Eu416   2.358       .  S
C390       C1568   1.444       .  S
C391        C742   1.434       .  S
C392       C1106   1.436       .  S
C393        C656   1.441       .  S
H394        O395   0.966       .  S
O395       Eu416   2.355       .  S
O395       Eu414   2.361       .  S
H396        O397   0.966   1_556  S
O397       Eu415   2.356       .  S
O397       Eu417   2.353       .  S
O398        C421   1.291       .  A
O398       Eu414   2.466       .  S
O399        C422   1.290       .  A
O399       Eu415   2.462       .  S
O400        C423   1.291       .  A
O400       Eu416   2.467       .  S
O401        C424   1.290   1_655  A
O401       Eu417   2.458   1_545  S
O402        C425   1.291       .  A
O402       Eu417   2.470   1_556  S
O403        C426   1.290       .  A
O403       Eu416   2.459       .  S
O404        C427   1.291       .  A
O404       Eu418   2.469       .  S
O405        C428   1.290   1_655  A
O405       Eu418   2.461       .  S
O406        C427   1.291       .  A
O406       Eu416   2.466       .  S
O407        C428   1.290       .  A
O407       Eu417   2.457   1_455  S
O408        C423   1.290       .  A
O408       Eu414   2.464       .  S
O409        C426   1.290       .  A
O409       Eu415   2.457       .  S
O410        C425   1.292       .  A
O410       Eu415   2.472   1_556  S
O411        C424   1.290   1_655  A
O411       Eu414   2.463   1_545  S
O412        C421   1.290       .  A
O412       Eu418   2.463       .  S
O413        C422   1.289       .  A
O413       Eu418   2.457       .  S
Eu414       O432   2.353       .  S
Eu414       O420   2.349       .  S
Eu415       O419   2.354       .  S
Eu415       O430   2.367       .  S
Eu416       O430   2.359       .  S
Eu416       O420   2.349       .  S
Eu417       O419   2.357       .  S
Eu417       O432   2.362       .  S
Eu418       O419   2.362       .  S
Eu418       O430   2.356       .  S
Eu418       O432   2.353       .  S
Eu418       O420   2.350       .  S
C421       C1356   1.441       .  S
C422        C726   1.434       .  S
C423        C994   1.441       .  S
C424       C1442   1.436       .  S
C425       C1288   1.445       .  S
C426       C1484   1.433       .  S
C427        C782   1.442       .  S
C428       C1148   1.436       .  S
H429        O430   0.966       .  S
H431        O432   0.965       .  S
O433        C444   1.290       .  A
O433       Eu469   2.459       .  S
O434        C445   1.289       .  A
O434       Eu468   2.457       .  S
O435        C446   1.291       .  A
O435       Eu441   2.466       .  S
O436        C447   1.290       .  A
O436       Eu441   2.461       .  S
O437        C447   1.290       .  A
O437       Eu471   2.463       .  S
O438        C446   1.292       .  A
O438       Eu470   2.475       .  S
O439        C445   1.290       .  A
O439       Eu441   2.461       .  S
O440        C444   1.291       .  A
O440       Eu441   2.470       .  S
Eu441       O451   2.357       .  S
Eu441       O443   2.351       .  S
Eu441       O442   2.359       .  S
Eu441       O449   2.355       .  S
O442       Eu471   2.354       .  S
O442       Eu468   2.355       .  S
O443       Eu469   2.351       .  S
O443       Eu470   2.352       .  S
C444       C1540   1.440       .  S
C445        C936   1.434       .  S
C446        C854   1.444       .  S
C447       C1050   1.437       .  S
H448        O449   0.965       .  S
O449       Eu470   2.352       .  S
O449       Eu468   2.355       .  S
H450        O451   0.966       .  S
O451       Eu469   2.356       .  S
O451       Eu471   2.359       .  S
O452        C475   1.290       .  A
O452       Eu468   2.460       .  S
O453        C476   1.290       .  A
O453       Eu469   2.462       .  S
O454        C477   1.290       .  A
O454       Eu470   2.459       .  S
O455        C478   1.290       .  A
O455       Eu471   2.462       .  S
O456        C479   1.288       .  A
O456       Eu471   2.451       .  S
O457        C480   1.289       .  A
O457       Eu470   2.458       .  S
O458        C481   1.291       .  A
O458       Eu472   2.465       .  S
O459        C482   1.293       .  A
O459       Eu472   2.478       .  S
O460        C481   1.291       .  A
O460       Eu470   2.469       .  S
O461        C482   1.291       .  A
O461       Eu471   2.467       .  S
O462        C477   1.290       .  A
O462       Eu468   2.458       .  S
O463        C480   1.290       .  A
O463       Eu469   2.462       .  S
O464        C479   1.289       .  A
O464       Eu469   2.457       .  S
O465        C478   1.290       .  A
O465       Eu468   2.465       .  S
O466        C475   1.291       .  A
O466       Eu472   2.464       .  S
O467        C476   1.289       .  A
O467       Eu472   2.455       .  S
Eu468       O486   2.352       .  S
Eu468       O474   2.356       .  S
Eu469       O473   2.356       .  S
Eu469       O484   2.354       .  S
Eu470       O484   2.358       .  S
Eu470       O474   2.360       .  S
Eu471       O473   2.356       .  S
Eu471       O486   2.353       .  S
Eu472       O473   2.353       .  S
Eu472       O484   2.364       .  S
Eu472       O486   2.356       .  S
Eu472       O474   2.359       .  S
C475       C1330   1.438       .  S
C476        C966   1.434       .  S
C477       C1386   1.435       .  S
C478       C1022   1.440       .  S
C479       C1428   1.431       .  S
C480       C1204   1.436       .  S
C481       C1092   1.440       .  S
C482        C796   1.446       .  S
H483        O484   0.967       .  S
H485        O486   0.965       .  S
O487        C498   1.289       .  A
O487       Eu523   2.458       .  S
O488        C499   1.290       .  A
O488       Eu522   2.461       .  S
O489        C500   1.290       .  A
O489       Eu495   2.462       .  S
O490        C501   1.289       .  A
O490       Eu495   2.455       .  S
O491        C501   1.291       .  A
O491       Eu525   2.463       .  S
O492        C500   1.289       .  A
O492       Eu524   2.456       .  S
O493        C499   1.291       .  A
O493       Eu495   2.468       .  S
O494        C498   1.290       .  A
O494       Eu495   2.461       .  S
Eu495       O505   2.358       .  S
Eu495       O497   2.356       .  S
Eu495       O496   2.354       .  S
Eu495       O503   2.350       .  S
O496       Eu525   2.352       .  S
O496       Eu522   2.347       .  S
O497       Eu523   2.356       .  S
O497       Eu524   2.357       .  S
C498       C1638   1.435       .  S
C499       C1316   1.440       .  S
C500        C880   1.435       .  S
C501       C1580   1.435       .  S
H502        O503   0.965       .  S
O503       Eu524   2.354       .  S
O503       Eu522   2.354       .  S
H504        O505   0.966       .  S
O505       Eu523   2.357       .  S
O505       Eu525   2.358       .  S
O506        C529   1.289       .  A
O506       Eu522   2.456       .  S
O507        C530   1.289       .  A
O507       Eu523   2.459       .  S
O508        C531   1.291       .  A
O508       Eu524   2.468       .  S
O509        C532   1.290       .  A
O509       Eu525   2.459       .  S
O510        C533   1.290       .  A
O510       Eu525   2.461       .  S
O511        C534   1.291       .  A
O511       Eu524   2.466       .  S
O512        C535   1.290       .  A
O512       Eu526   2.462       .  S
O513        C536   1.290       .  A
O513       Eu526   2.462       .  S
O514        C535   1.290       .  A
O514       Eu524   2.460       .  S
O515        C536   1.291       .  A
O515       Eu525   2.468       .  S
O516        C531   1.289       .  A
O516       Eu522   2.453       .  S
O517        C534   1.291       .  A
O517       Eu523   2.465       .  S
O518        C533   1.290       .  A
O518       Eu523   2.458       .  S
O519        C532   1.291       .  A
O519       Eu522   2.466       .  S
O520        C529   1.289       .  A
O520       Eu526   2.454       .  S
O521        C530   1.292       .  A
O521       Eu526   2.470       .  S
Eu522       O540   2.358       .  S
Eu522       O528   2.355       .  S
Eu523       O527   2.353       .  S
Eu523       O538   2.356       .  S
Eu524       O538   2.358       .  S
Eu524       O528   2.352       .  S
Eu525       O527   2.353       .  S
Eu525       O540   2.357       .  S
Eu526       O527   2.351       .  S
Eu526       O538   2.355       .  S
Eu526       O540   2.363       .  S
Eu526       O528   2.353       .  S
C529       C1610   1.431       .  S
C530       C1162   1.440       .  S
C531       C1232   1.436       .  S
C532        C686   1.439       .  S
C533       C1244   1.435       .  S
C534        C826   1.441       .  S
C535       C1498   1.437       .  S
C536        C910   1.439       .  S
H537        O538   0.965       .  S
H539        O540   0.966       .  S
O541        C552   1.291       .  A
O541       Eu577   2.469       .  S
O542        C553   1.287       .  A
O542       Eu576   2.444       .  S
O543        C554   1.292       .  A
O543       Eu549   2.472       .  S
O544        C555   1.291       .  A
O544       Eu549   2.464       .  S
O545        C555   1.291       .  A
O545       Eu579   2.470       .  S
O546        C554   1.291       .  A
O546       Eu578   2.466       .  S
O547        C553   1.289       .  A
O547       Eu549   2.455       .  S
O548        C552   1.289       .  A
O548       Eu549   2.457       .  S
Eu549       O559   2.357       .  S
Eu549       O551   2.350       .  S
Eu549       O550   2.357       .  S
Eu549       O557   2.355       .  S
O550       Eu579   2.353       .  S
O550       Eu576   2.355       .  S
O551       Eu577   2.353       .  S
O551       Eu578   2.351       .  S
C552       C1454   1.438       .  S
C553       C1008   1.427       .  S
C554       C1118   1.445       .  S
C555        C812   1.440       .  S
H556        O557   0.966       .  S
O557       Eu578   2.353       .  S
O557       Eu576   2.362       .  S
H558        O559   0.966       .  S
O559       Eu577   2.353       .  S
O559       Eu579   2.355       .  S
O560        C583   1.291       .  A
O560       Eu576   2.467       .  S
O561        C584   1.291       .  A
O561       Eu577   2.469       .  S
O562        C585   1.290       .  A
O562       Eu578   2.459       .  S
O563        C586   1.289       .  A
O563       Eu579   2.455       .  S
O564        C587   1.289       .  A
O564       Eu579   2.457       .  S
O565        C588   1.290       .  A
O565       Eu578   2.458       .  S
O566        C589   1.289       .  A
O566       Eu580   2.458       .  S
O567        C590   1.291       .  A
O567       Eu580   2.463       .  S
O568        C589   1.290       .  A
O568       Eu578   2.462       .  S
O569        C590   1.292       .  A
O569       Eu579   2.471       .  S
O570        C585   1.288       .  A
O570       Eu576   2.448       .  S
O571        C588   1.290       .  A
O571       Eu577   2.460       .  S
O572        C587   1.290       .  A
O572       Eu577   2.458       .  S
O573        C586   1.291       .  A
O573       Eu576   2.469       .  S
O574        C583   1.290       .  A
O574       Eu580   2.466       .  S
O575        C584   1.288       .  A
O575       Eu580   2.445       .  S
Eu576       O594   2.347       .  S
Eu576       O582   2.352       .  S
Eu577       O581   2.355       .  S
Eu577       O592   2.355       .  S
Eu578       O592   2.355       .  S
Eu578       O582   2.357       .  S
Eu579       O581   2.353       .  S
Eu579       O594   2.360       .  S
Eu580       O581   2.356       .  S
Eu580       O592   2.362       .  S
Eu580       O594   2.355       .  S
Eu580       O582   2.347       .  S
C583       C1400   1.443       .  S
C584       C1036   1.433       .  S
C585       C1342   1.431       .  S
C586        C980   1.438       .  S
C587       C1372   1.434       .  S
C588        C714   1.436       .  S
C589        C770   1.435       .  S
C590       C1064   1.442       .  S
H591        O592   0.966       .  S
H593        O594   0.965       .  S
O595        C606   1.290       .  A
O595       Eu631   2.460       .  S
O596        C607   1.291       .  A
O596       Eu630   2.468       .  S
O597        C608   1.289       .  A
O597       Eu603   2.457       .  S
O598        C609   1.291       .  A
O598       Eu603   2.469       .  S
O599        C609   1.290       .  A
O599       Eu633   2.460       .  S
O600        C608   1.292       .  A
O600       Eu632   2.471       .  S
O601        C607   1.288       .  A
O601       Eu603   2.449       .  S
O602        C606   1.289       .  A
O602       Eu603   2.458       .  S
Eu603       O613   2.354       .  S
Eu603       O605   2.353       .  S
Eu603       O604   2.352       .  S
Eu603       O611   2.360       .  S
O604       Eu633   2.355       .  S
O604       Eu630   2.356       .  S
O605       Eu631   2.353       .  S
O605       Eu632   2.352       .  S
C606       C1624   1.436       .  S
C607       C1176   1.433       .  S
C608        C866   1.439       .  S
C609       C1260   1.441       .  S
H610        O611   0.966       .  S
O611       Eu632   2.355       .  S
O611       Eu630   2.361       .  S
H612        O613   0.966       .  S
O613       Eu631   2.358       .  S
O613       Eu633   2.353       .  S
O614        C637   1.290       .  A
O614       Eu630   2.463       .  S
O615        C638   1.289   1_655  A
O615       Eu631   2.457   1_545  S
O616        C639   1.290       .  A
O616       Eu632   2.464       .  S
O617        C640   1.289       .  A
O617       Eu633   2.454       .  S
O618        C641   1.290       .  A
O618       Eu633   2.464       .  S
O619        C642   1.291       .  A
O619       Eu632   2.466   1_545  S
O620        C643   1.291       .  A
O620       Eu634   2.468       .  S
O621        C644   1.292   1_655  A
O621       Eu634   2.475       .  S
O622        C643   1.290       .  A
O622       Eu632   2.462       .  S
O623        C644   1.288   1_655  A
O623       Eu633   2.450       .  S
O624        C639   1.292       .  A
O624       Eu630   2.471       .  S
O625        C642   1.289       .  A
O625       Eu631   2.455   1_545  S
O626        C641   1.292       .  A
O626       Eu631   2.471       .  S
O627        C640   1.291       .  A
O627       Eu630   2.468       .  S
O628        C637   1.291       .  A
O628       Eu634   2.464       .  S
O629        C638   1.289   1_655  A
O629       Eu634   2.456   1_545  S
Eu630       O648   2.363       .  S
Eu630       O636   2.350       .  S
Eu631       O635   2.349       .  S
Eu631       O646   2.361       .  S
Eu632       O646   2.357       .  S
Eu632       O636   2.353       .  S
Eu633       O635   2.352       .  S
Eu633       O648   2.361       .  S
Eu634       O635   2.354       .  S
Eu634       O646   2.357       .  S
Eu634       O648   2.354       .  S
Eu634       O636   2.353       .  S
C637       C1414   1.439       .  S
C638       C1188   1.432       .  S
C639        C952   1.442       .  S
C640       C1526   1.436       .  S
C641        C896   1.443       .  S
C642       C1512   1.435       .  S
C643       C1078   1.440   1_565  S
C644        C840   1.439       .  S
H645        O646   0.966   1_545  S
H647        O648   0.965       .  S
C649        C650   1.402       .  A
C649        C654   1.403       .  A
C649        C657   1.445       .  S
C650        C651   1.401       .  A
C650        H659   1.083   1_655  S
C651        C652   1.403       .  A
C651        H660   1.083   1_655  S
C652        C653   1.402       .  A
C652        C655   1.445       .  S
C653        C654   1.401       .  A
C653        H661   1.083       .  S
C654        H662   1.084       .  S
C655        C656   1.209       .  T
C657        C658   1.209       .  T
C663        C664   1.401       .  A
C663        C668   1.401       .  A
C663        C671   1.439       .  S
C664        C665   1.400       .  A
C664        H673   1.083       .  S
C665        C666   1.401       .  A
C665        H674   1.083       .  S
C666        C667   1.401       .  A
C666        C669   1.439       .  S
C667        C668   1.397       .  A
C667        H675   1.084       .  S
C668        H676   1.084       .  S
C669        C670   1.205       .  T
C671        C672   1.205       .  T
C677        C678   1.402       .  A
C677        C682   1.402       .  A
C677        C685   1.443       .  S
C678        C679   1.400       .  A
C678        H687   1.083       .  S
C679        C680   1.402       .  A
C679        H688   1.083       .  S
C680        C681   1.402       .  A
C680        C683   1.443       .  S
C681        C682   1.400       .  A
C681        H689   1.083       .  S
C682        H690   1.083       .  S
C683        C684   1.208       .  T
C685        C686   1.208       .  T
C691        C692   1.400       .  A
C691        C696   1.402       .  A
C691        C699   1.439       .  S
C692        C693   1.397       .  A
C692        H701   1.083       .  S
C693        C694   1.400       .  A
C693        H702   1.083       .  S
C694        C695   1.402       .  A
C694        C697   1.439       .  S
C695        C696   1.400       .  A
C695        H703   1.083       .  S
C696        H704   1.083       .  S
C697        C698   1.206       .  T
C699        C700   1.205       .  T
C705        C706   1.401       .  A
C705        C710   1.402       .  A
C705        C713   1.441       .  S
C706        C707   1.398   1_455  A
C706        H715   1.083   1_455  S
C707        C708   1.401   1_655  A
C707        H716   1.083       .  S
C708        C709   1.402       .  A
C708        C711   1.441   1_455  S
C709        C710   1.401       .  A
C709        H717   1.083       .  S
C710        H718   1.083       .  S
C711        C712   1.207       .  T
C713        C714   1.207       .  T
C719        C720   1.401       .  A
C719        C724   1.401       .  A
C719        C727   1.439       .  S
C720        C721   1.399       .  A
C720        H729   1.083       .  S
C721        C722   1.401       .  A
C721        H730   1.083       .  S
C722        C723   1.402       .  A
C722        C725   1.439       .  S
C723        C724   1.399       .  A
C723        H731   1.084       .  S
C724        H732   1.084       .  S
C725        C726   1.206       .  T
C727        C728   1.205       .  T
C733        C734   1.400       .  A
C733        C738   1.403       .  A
C733        C741   1.439       .  S
C734        C735   1.396       .  A
C734        H743   1.084       .  S
C735        C736   1.400       .  A
C735        H744   1.084       .  S
C736        C737   1.402       .  A
C736        C739   1.440       .  S
C737        C738   1.401       .  A
C737        H745   1.083       .  S
C738        H746   1.083       .  S
C739        C740   1.206       .  T
C741        C742   1.206       .  T
C747        C748   1.402       .  A
C747        C752   1.401       .  A
C747        C755   1.444       .  S
C748        C749   1.401       .  A
C748        H757   1.083       .  S
C749        C750   1.402       .  A
C749        H758   1.083       .  S
C750        C751   1.402       .  A
C750        C753   1.444       .  S
C751        C752   1.400       .  A
C751        H759   1.083       .  S
C752        H760   1.083       .  S
C753        C754   1.209       .  T
C755        C756   1.208       .  T
C761        C762   1.401       .  A
C761        C766   1.401       .  A
C761        C769   1.440   1_655  S
C762        C763   1.399       .  A
C762        H771   1.083       .  S
C763        C764   1.401       .  A
C763        H772   1.083       .  S
C764        C765   1.401       .  A
C764        C767   1.439       .  S
C765        C766   1.398       .  A
C765        H773   1.084       .  S
C766        H774   1.083       .  S
C767        C768   1.206       .  T
C769        C770   1.206       .  T
C775        C776   1.403       .  A
C775        C780   1.402       .  A
C775        C783   1.446       .  S
C776        C777   1.403       .  A
C776        H785   1.083       .  S
C777        C778   1.404       .  A
C777        H786   1.083       .  S
C778        C779   1.401       .  A
C778        C781   1.447       .  S
C779        C780   1.400       .  A
C779        H787   1.083       .  S
C780        H788   1.083       .  S
C781        C782   1.210       .  T
C783        C784   1.210       .  T
C789        C790   1.402       .  A
C789        C794   1.403       .  A
C789        C797   1.449       .  S
C790        C791   1.402       .  A
C790        H799   1.083       .  S
C791        C792   1.403       .  A
C791        H800   1.083       .  S
C792        C793   1.404       .  A
C792        C795   1.450       .  S
C793        C794   1.404       .  A
C793        H801   1.083       .  S
C794        H802   1.083       .  S
C795        C796   1.212       .  T
C797        C798   1.212       .  T
C803        C804   1.403       .  A
C803        C808   1.402       .  A
C803        C811   1.445       .  S
C804        C805   1.401       .  A
C804        H813   1.083       .  S
C805        C806   1.402       .  A
C805        H814   1.083       .  S
C806        C807   1.402       .  A
C806        C809   1.444       .  S
C807        C808   1.400       .  A
C807        H815   1.083       .  S
C808        H816   1.083       .  S
C809        C810   1.208       .  T
C811        C812   1.209       .  T
C817        C818   1.403       .  A
C817        C822   1.402       .  A
C817        C825   1.445       .  S
C818        C819   1.402       .  A
C818        H827   1.083       .  S
C819        C820   1.403       .  A
C819        H828   1.083       .  S
C820        C821   1.402       .  A
C820        C823   1.445       .  S
C821        C822   1.400       .  A
C821        H829   1.083       .  S
C822        H830   1.083       .  S
C823        C824   1.209       .  T
C825        C826   1.209       .  T
C831        C832   1.401       .  A
C831        C836   1.403       .  A
C831        C839   1.444       .  S
C832        C833   1.400       .  A
C832        H841   1.083       .  S
C833        C834   1.402       .  A
C833        H842   1.083       .  S
C834        C835   1.402       .  A
C834        C837   1.444       .  S
C835        C836   1.401       .  A
C835        H843   1.083       .  S
C836        H844   1.084       .  S
C837        C838   1.209       .  T
C839        C840   1.208       .  T
C845        C846   1.402       .  A
C845        C850   1.403       .  A
C845        C853   1.449       .  S
C846        C847   1.402       .  A
C846        H855   1.083       .  S
C847        C848   1.402       .  A
C847        H856   1.083       .  S
C848        C849   1.403       .  A
C848        C851   1.448       .  S
C849        C850   1.403       .  A
C849        H857   1.083   1_545  S
C850        H858   1.083       .  S
C851        C852   1.211   1_545  T
C853        C854   1.211       .  T
C859        C860   1.402       .  A
C859        C864   1.402       .  A
C859        C867   1.443       .  S
C860        C861   1.402       .  A
C860        H869   1.083       .  S
C861        C862   1.403       .  A
C861        H870   1.083       .  S
C862        C863   1.401       .  A
C862        C865   1.444       .  S
C863        C864   1.399       .  A
C863        H871   1.083       .  S
C864        H872   1.084       .  S
C865        C866   1.208       .  T
C867        C868   1.208       .  T
C873        C874   1.401       .  A
C873        C878   1.402       .  A
C873        C881   1.441       .  S
C874        C875   1.399       .  A
C874        H883   1.083       .  S
C875        C876   1.402       .  A
C875        H884   1.083       .  S
C876        C877   1.401       .  A
C876        C879   1.440       .  S
C877        C878   1.399       .  A
C877        H885   1.083       .  S
C878        H886   1.083       .  S
C879        C880   1.206       .  T
C881        C882   1.207       .  T
C887        C888   1.403   1_565  A
C887        C892   1.402       .  A
C887        C895   1.448       .  S
C888        C889   1.403       .  A
C888        H897   1.083       .  S
C889        C890   1.403       .  A
C889        H898   1.083       .  S
C890        C891   1.403   1_545  A
C890        C893   1.448       .  S
C891        C892   1.402       .  A
C891        H899   1.083       .  S
C892        H900   1.083       .  S
C893        C894   1.211       .  T
C895        C896   1.211   1_455  T
C901        C902   1.402       .  A
C901        C906   1.402       .  A
C901        C909   1.443       .  S
C902        C903   1.401       .  A
C902        H911   1.083       .  S
C903        C904   1.402       .  A
C903        H912   1.083       .  S
C904        C905   1.402       .  A
C904        C907   1.442       .  S
C905        C906   1.400       .  A
C905        H913   1.084       .  S
C906        H914   1.083       .  S
C907        C908   1.207       .  T
C909        C910   1.208       .  T
C915        C916   1.402       .  A
C915        C920   1.403       .  A
C915        C923   1.446       .  S
C916        C917   1.400       .  A
C916        H925   1.083       .  S
C917        C918   1.403       .  A
C917        H926   1.083       .  S
C918        C919   1.403       .  A
C918        C921   1.447       .  S
C919        C920   1.403       .  A
C919        H927   1.083       .  S
C920        H928   1.083       .  S
C921        C922   1.210       .  T
C923        C924   1.209       .  T
C929        C930   1.401       .  A
C929        C934   1.401       .  A
C929        C937   1.440       .  S
C930        C931   1.400       .  A
C930        H939   1.083       .  S
C931        C932   1.402   1_565  A
C931        H940   1.083       .  S
C932        C933   1.400       .  A
C932        C935   1.439       .  S
C933        C934   1.398   1_545  A
C933        H941   1.084       .  S
C934        H942   1.084       .  S
C935        C936   1.206       .  T
C937        C938   1.206       .  T
C943        C944   1.403       .  A
C943        C948   1.402       .  A
C943        C951   1.446       .  S
C944        C945   1.401       .  A
C944        H953   1.083       .  S
C945        C946   1.402       .  A
C945        H954   1.083       .  S
C946        C947   1.402       .  A
C946        C949   1.445       .  S
C947        C948   1.401       .  A
C947        H955   1.083       .  S
C948        H956   1.083       .  S
C949        C950   1.209       .  T
C951        C952   1.210       .  T
C957        C958   1.401       .  A
C957        C962   1.401       .  A
C957        C965   1.439       .  S
C958        C959   1.400       .  A
C958        H967   1.083       .  S
C959        C960   1.401       .  A
C959        H968   1.083       .  S
C960        C961   1.401       .  A
C960        C963   1.439       .  S
C961        C962   1.398       .  A
C961        H969   1.084       .  S
C962        H970   1.084       .  S
C963        C964   1.206       .  T
C965        C966   1.206       .  T
C971        C972   1.402       .  A
C971        C976   1.402       .  A
C971        C979   1.443       .  S
C972        C973   1.401       .  A
C972        H981   1.083       .  S
C973        C974   1.402       .  A
C973        H982   1.083       .  S
C974        C975   1.402       .  A
C974        C977   1.443       .  S
C975        C976   1.400       .  A
C975        H983   1.083       .  S
C976        H984   1.083       .  S
C977        C978   1.208       .  T
C979        C980   1.208       .  T
C985        C986   1.402       .  A
C985        C990   1.403   1_565  A
C985        C993   1.445       .  S
C986        C987   1.400       .  A
C986        H995   1.083       .  S
C987        C988   1.402   1_565  A
C987        H996   1.083       .  S
C988        C989   1.402       .  A
C988        C991   1.445       .  S
C989        C990   1.402       .  A
C989        H997   1.083       .  S
C990        H998   1.083       .  S
C991        C992   1.209       .  T
C993        C994   1.209       .  T
C999       C1000   1.401       .  A
C999       C1004   1.399       .  A
C999       C1007   1.432       .  S
C1000      C1001   1.398       .  A
C1000      H1009   1.084       .  S
C1001      C1002   1.401       .  A
C1001      H1010   1.083       .  S
C1002      C1003   1.400       .  A
C1002      C1005   1.434       .  S
C1003      C1004   1.395       .  A
C1003      H1011   1.084       .  S
C1004      H1012   1.084       .  S
C1005      C1006   1.203       .  T
C1007      C1008   1.201       .  T
C1013      C1014   1.402       .  A
C1013      C1018   1.402       .  A
C1013      C1021   1.444       .  S
C1014      C1015   1.401       .  A
C1014      H1023   1.083       .  S
C1015      C1016   1.402       .  A
C1015      H1024   1.083       .  S
C1016      C1017   1.402       .  A
C1016      C1019   1.444       .  S
C1017      C1018   1.401       .  A
C1017      H1025   1.083       .  S
C1018      H1026   1.083       .  S
C1019      C1020   1.209       .  T
C1021      C1022   1.209       .  T
C1027      C1028   1.401       .  A
C1027      C1032   1.401       .  A
C1027      C1035   1.438   1_655  S
C1028      C1029   1.398       .  A
C1028      H1037   1.084       .  S
C1029      C1030   1.401       .  A
C1029      H1038   1.084       .  S
C1030      C1031   1.401       .  A
C1030      C1033   1.438       .  S
C1031      C1032   1.398       .  A
C1031      H1039   1.083       .  S
C1032      H1040   1.083       .  S
C1033      C1034   1.205       .  T
C1035      C1036   1.205       .  T
C1041      C1042   1.401       .  A
C1041      C1046   1.402       .  A
C1041      C1049   1.442       .  S
C1042      C1043   1.399       .  A
C1042      H1051   1.083       .  S
C1043      C1044   1.401       .  A
C1043      H1052   1.083       .  S
C1044      C1045   1.402       .  A
C1044      C1047   1.441       .  S
C1045      C1046   1.400       .  A
C1045      H1053   1.083       .  S
C1046      H1054   1.083       .  S
C1047      C1048   1.207       .  T
C1049      C1050   1.207       .  T
C1055      C1056   1.403       .  A
C1055      C1060   1.402       .  A
C1055      C1063   1.447       .  S
C1056      C1057   1.402       .  A
C1056      H1065   1.083       .  S
C1057      C1058   1.403       .  A
C1057      H1066   1.083       .  S
C1058      C1059   1.403       .  A
C1058      C1061   1.447       .  S
C1059      C1060   1.401       .  A
C1059      H1067   1.083       .  S
C1060      H1068   1.083       .  S
C1061      C1062   1.211       .  T
C1063      C1064   1.210       .  T
C1069      C1070   1.402       .  A
C1069      C1074   1.402       .  A
C1069      C1077   1.445       .  S
C1070      C1071   1.401       .  A
C1070      H1079   1.083       .  S
C1071      C1072   1.402       .  A
C1071      H1080   1.083       .  S
C1072      C1073   1.402       .  A
C1072      C1075   1.445       .  S
C1073      C1074   1.401       .  A
C1073      H1081   1.083       .  S
C1074      H1082   1.083       .  S
C1075      C1076   1.209   1_655  T
C1077      C1078   1.209       .  T
C1083      C1084   1.402       .  A
C1083      C1088   1.403       .  A
C1083      C1091   1.444       .  S
C1084      C1085   1.400       .  A
C1084      H1093   1.083       .  S
C1085      C1086   1.401       .  A
C1085      H1094   1.083       .  S
C1086      C1087   1.402       .  A
C1086      C1089   1.443       .  S
C1087      C1088   1.401       .  A
C1087      H1095   1.084       .  S
C1088      H1096   1.083       .  S
C1089      C1090   1.208       .  T
C1091      C1092   1.209       .  T
C1097      C1098   1.401       .  A
C1097      C1102   1.402       .  A
C1097      C1105   1.441       .  S
C1098      C1099   1.399       .  A
C1098      H1107   1.083       .  S
C1099      C1100   1.402       .  A
C1099      H1108   1.083       .  S
C1100      C1101   1.402       .  A
C1100      C1103   1.442       .  S
C1101      C1102   1.400       .  A
C1101      H1109   1.083       .  S
C1102      H1110   1.084       .  S
C1103      C1104   1.208       .  T
C1105      C1106   1.206       .  T
C1111      C1112   1.403       .  A
C1111      C1116   1.403       .  A
C1111      C1119   1.449       .  S
C1112      C1113   1.402       .  A
C1112      H1121   1.083       .  S
C1113      C1114   1.402       .  A
C1113      H1122   1.083       .  S
C1114      C1115   1.404       .  A
C1114      C1117   1.449       .  S
C1115      C1116   1.404       .  A
C1115      H1123   1.083       .  S
C1116      H1124   1.083       .  S
C1117      C1118   1.212       .  T
C1119      C1120   1.211       .  T
C1125      C1126   1.402       .  A
C1125      C1130   1.401       .  A
C1125      C1133   1.441       .  S
C1126      C1127   1.401       .  A
C1126      H1135   1.084       .  S
C1127      C1128   1.402       .  A
C1127      H1136   1.083   1_545  S
C1128      C1129   1.401       .  A
C1128      C1131   1.442   1_545  S
C1129      C1130   1.399       .  A
C1129      H1137   1.083       .  S
C1130      H1138   1.083       .  S
C1131      C1132   1.208       .  T
C1133      C1134   1.207       .  T
C1139      C1140   1.400       .  A
C1139      C1144   1.403       .  A
C1139      C1147   1.441       .  S
C1140      C1141   1.398       .  A
C1140      H1149   1.084   1_554  S
C1141      C1142   1.401       .  A
C1141      H1150   1.084   1_554  S
C1142      C1143   1.402       .  A
C1142      C1145   1.441       .  S
C1143      C1144   1.401       .  A
C1143      H1151   1.083       .  S
C1144      H1152   1.083       .  S
C1145      C1146   1.207       .  T
C1147      C1148   1.206       .  T
C1153      C1154   1.403       .  A
C1153      C1158   1.402       .  A
C1153      C1161   1.445       .  S
C1154      C1155   1.401       .  A
C1154      H1163   1.083       .  S
C1155      C1156   1.402       .  A
C1155      H1164   1.083       .  S
C1156      C1157   1.402       .  A
C1156      C1159   1.444       .  S
C1157      C1158   1.401       .  A
C1157      H1165   1.083       .  S
C1158      H1166   1.083       .  S
C1159      C1160   1.208       .  T
C1161      C1162   1.209       .  T
C1167      C1168   1.401       .  A
C1167      C1172   1.401       .  A
C1167      C1175   1.438       .  S
C1168      C1169   1.398       .  A
C1168      H1177   1.084       .  S
C1169      C1170   1.401       .  A
C1169      H1178   1.084       .  S
C1170      C1171   1.401       .  A
C1170      C1173   1.437       .  S
C1171      C1172   1.398       .  A
C1171      H1179   1.083       .  S
C1172      H1180   1.083       .  S
C1173      C1174   1.204       .  T
C1175      C1176   1.205       .  T
C1181      C1182   1.401       .  A
C1181      C1186   1.400       .  A
C1181      C1189   1.436       .  S
C1182      C1183   1.398       .  A
C1182      H1191   1.083       .  S
C1183      C1184   1.401       .  A
C1183      H1192   1.083       .  S
C1184      C1185   1.400       .  A
C1184      C1187   1.436       .  S
C1185      C1186   1.397       .  A
C1185      H1193   1.084       .  S
C1186      H1194   1.084       .  S
C1187      C1188   1.204       .  T
C1189      C1190   1.204       .  T
C1195      C1196   1.402       .  A
C1195      C1200   1.401       .  A
C1195      C1203   1.441       .  S
C1196      C1197   1.401       .  A
C1196      H1205   1.083       .  S
C1197      C1198   1.402       .  A
C1197      H1206   1.083       .  S
C1198      C1199   1.401       .  A
C1198      C1201   1.441       .  S
C1199      C1200   1.398       .  A
C1199      H1207   1.083       .  S
C1200      H1208   1.083       .  S
C1201      C1202   1.207       .  T
C1203      C1204   1.207       .  T
C1209      C1210   1.402       .  A
C1209      C1214   1.402       .  A
C1209      C1217   1.443       .  S
C1210      C1211   1.400       .  A
C1210      H1219   1.083       .  S
C1211      C1212   1.402       .  A
C1211      H1220   1.083       .  S
C1212      C1213   1.402       .  A
C1212      C1215   1.442       .  S
C1213      C1214   1.400       .  A
C1213      H1221   1.083       .  S
C1214      H1222   1.083       .  S
C1215      C1216   1.208       .  T
C1217      C1218   1.208       .  T
C1223      C1224   1.401       .  A
C1223      C1228   1.402       .  A
C1223      C1231   1.441   1_655  S
C1224      C1225   1.399       .  A
C1224      H1233   1.083       .  S
C1225      C1226   1.401       .  A
C1225      H1234   1.083       .  S
C1226      C1227   1.402       .  A
C1226      C1229   1.441       .  S
C1227      C1228   1.400       .  A
C1227      H1235   1.083       .  S
C1228      H1236   1.083       .  S
C1229      C1230   1.207       .  T
C1231      C1232   1.207       .  T
C1237      C1238   1.401       .  A
C1237      C1242   1.401       .  A
C1237      C1245   1.439       .  S
C1238      C1239   1.398       .  A
C1238      H1247   1.084       .  S
C1239      C1240   1.401       .  A
C1239      H1248   1.084       .  S
C1240      C1241   1.402       .  A
C1240      C1243   1.440       .  S
C1241      C1242   1.400       .  A
C1241      H1249   1.083       .  S
C1242      H1250   1.083       .  S
C1243      C1244   1.206       .  T
C1245      C1246   1.206       .  T
C1251      C1252   1.401       .  A
C1251      C1256   1.403       .  A
C1251      C1259   1.445       .  S
C1252      C1253   1.400       .  A
C1252      H1261   1.083       .  S
C1253      C1254   1.402       .  A
C1253      H1262   1.084       .  S
C1254      C1255   1.402       .  A
C1254      C1257   1.445       .  S
C1255      C1256   1.403       .  A
C1255      H1263   1.083       .  S
C1256      H1264   1.083       .  S
C1257      C1258   1.209       .  T
C1259      C1260   1.209       .  T
C1265      C1266   1.402   1_545  A
C1265      C1270   1.400       .  A
C1265      C1273   1.435       .  S
C1266      C1267   1.399       .  A
C1266      H1275   1.084       .  S
C1267      C1268   1.401       .  A
C1267      H1276   1.083       .  S
C1268      C1269   1.401       .  A
C1268      C1271   1.436       .  S
C1269      C1270   1.396   1_565  A
C1269      H1277   1.084       .  S
C1270      H1278   1.084       .  S
C1271      C1272   1.204       .  T
C1273      C1274   1.203       .  T
C1279      C1280   1.403       .  A
C1279      C1284   1.403       .  A
C1279      C1287   1.449       .  S
C1280      C1281   1.403       .  A
C1280      H1289   1.083       .  S
C1281      C1282   1.403       .  A
C1281      H1290   1.083       .  S
C1282      C1283   1.403       .  A
C1282      C1285   1.447   1_655  S
C1283      C1284   1.402       .  A
C1283      H1291   1.083       .  S
C1284      H1292   1.083       .  S
C1285      C1286   1.211       .  T
C1287      C1288   1.212       .  T
C1293      C1294   1.400       .  A
C1293      C1298   1.401       .  A
C1293      C1301   1.437       .  S
C1294      C1295   1.397       .  A
C1294      H1303   1.084       .  S
C1295      C1296   1.401       .  A
C1295      H1304   1.084       .  S
C1296      C1297   1.401       .  A
C1296      C1299   1.437       .  S
C1297      C1298   1.399       .  A
C1297      H1305   1.083       .  S
C1298      H1306   1.083       .  S
C1299      C1300   1.204       .  T
C1301      C1302   1.204       .  T
C1307      C1308   1.402       .  A
C1307      C1312   1.402       .  A
C1307      C1315   1.445       .  S
C1308      C1309   1.401       .  A
C1308      H1317   1.083       .  S
C1309      C1310   1.402       .  A
C1309      H1318   1.083       .  S
C1310      C1311   1.402       .  A
C1310      C1313   1.445       .  S
C1311      C1312   1.401       .  A
C1311      H1319   1.083       .  S
C1312      H1320   1.083       .  S
C1313      C1314   1.209       .  T
C1315      C1316   1.209       .  T
C1321      C1322   1.402       .  A
C1321      C1326   1.402       .  A
C1321      C1329   1.443       .  S
C1322      C1323   1.401       .  A
C1322      H1331   1.083       .  S
C1323      C1324   1.402       .  A
C1323      H1332   1.083       .  S
C1324      C1325   1.402       .  A
C1324      C1327   1.443       .  S
C1325      C1326   1.400       .  A
C1325      H1333   1.083       .  S
C1326      H1334   1.083       .  S
C1327      C1328   1.208       .  T
C1329      C1330   1.208       .  T
C1335      C1336   1.401       .  A
C1335      C1340   1.401       .  A
C1335      C1343   1.437       .  S
C1336      C1337   1.398       .  A
C1336      H1345   1.083       .  S
C1337      C1338   1.401       .  A
C1337      H1346   1.084       .  S
C1338      C1339   1.400       .  A
C1338      C1341   1.436       .  S
C1339      C1340   1.398       .  A
C1339      H1347   1.084       .  S
C1340      H1348   1.083       .  S
C1341      C1342   1.204       .  T
C1343      C1344   1.204       .  T
C1349      C1350   1.403   1_545  A
C1349      C1354   1.402       .  A
C1349      C1357   1.444       .  S
C1350      C1351   1.402       .  A
C1350      H1359   1.083       .  S
C1351      C1352   1.403       .  A
C1351      H1360   1.083       .  S
C1352      C1353   1.402   1_565  A
C1352      C1355   1.445       .  S
C1353      C1354   1.400       .  A
C1353      H1361   1.083       .  S
C1354      H1362   1.083       .  S
C1355      C1356   1.209   1_455  T
C1357      C1358   1.209       .  T
C1363      C1364   1.401       .  A
C1363      C1368   1.401       .  A
C1363      C1371   1.439       .  S
C1364      C1365   1.399       .  A
C1364      H1373   1.083       .  S
C1365      C1366   1.402       .  A
C1365      H1374   1.083       .  S
C1366      C1367   1.401       .  A
C1366      C1369   1.439       .  S
C1367      C1368   1.398       .  A
C1367      H1375   1.083       .  S
C1368      H1376   1.083       .  S
C1369      C1370   1.206       .  T
C1371      C1372   1.205       .  T
C1377      C1378   1.402       .  A
C1377      C1382   1.400       .  A
C1377      C1385   1.440   1_565  S
C1378      C1379   1.400       .  A
C1378      H1387   1.083       .  S
C1379      C1380   1.401       .  A
C1379      H1388   1.083       .  S
C1380      C1381   1.401       .  A
C1380      C1383   1.439       .  S
C1381      C1382   1.398       .  A
C1381      H1389   1.084       .  S
C1382      H1390   1.083   1_565  S
C1383      C1384   1.206       .  T
C1385      C1386   1.206       .  T
C1391      C1392   1.403       .  A
C1391      C1396   1.403       .  A
C1391      C1399   1.447       .  S
C1392      C1393   1.402       .  A
C1392      H1401   1.083       .  S
C1393      C1394   1.402       .  A
C1393      H1402   1.083       .  S
C1394      C1395   1.402       .  A
C1394      C1397   1.446       .  S
C1395      C1396   1.402       .  A
C1395      H1403   1.083       .  S
C1396      H1404   1.083       .  S
C1397      C1398   1.210       .  T
C1399      C1400   1.210       .  T
C1405      C1406   1.402       .  A
C1405      C1410   1.402       .  A
C1405      C1413   1.444       .  S
C1406      C1407   1.400       .  A
C1406      H1415   1.084       .  S
C1407      C1408   1.402       .  A
C1407      H1416   1.084       .  S
C1408      C1409   1.402       .  A
C1408      C1411   1.444       .  S
C1409      C1410   1.402       .  A
C1409      H1417   1.083   1_655  S
C1410      H1418   1.083   1_655  S
C1411      C1412   1.209       .  T
C1413      C1414   1.209       .  T
C1419      C1420   1.400       .  A
C1419      C1424   1.401       .  A
C1419      C1427   1.435       .  S
C1420      C1421   1.397       .  A
C1420      H1429   1.083       .  S
C1421      C1422   1.401       .  A
C1421      H1430   1.084       .  S
C1422      C1423   1.400       .  A
C1422      C1425   1.435       .  S
C1423      C1424   1.397       .  A
C1423      H1431   1.083       .  S
C1424      H1432   1.084       .  S
C1425      C1426   1.203       .  T
C1427      C1428   1.203       .  T
C1433      C1434   1.402       .  A
C1433      C1438   1.402       .  A
C1433      C1441   1.441       .  S
C1434      C1435   1.399       .  A
C1434      H1443   1.083       .  S
C1435      C1436   1.402       .  A
C1435      H1444   1.083       .  S
C1436      C1437   1.401       .  A
C1436      C1439   1.440       .  S
C1437      C1438   1.399       .  A
C1437      H1445   1.083       .  S
C1438      H1446   1.083       .  S
C1439      C1440   1.206       .  T
C1441      C1442   1.207       .  T
C1447      C1448   1.403       .  A
C1447      C1452   1.402       .  A
C1447      C1455   1.444       .  S
C1448      C1449   1.402       .  A
C1448      H1457   1.083       .  S
C1449      C1450   1.403       .  A
C1449      H1458   1.083       .  S
C1450      C1451   1.401       .  A
C1450      C1453   1.443       .  S
C1451      C1452   1.399       .  A
C1451      H1459   1.083       .  S
C1452      H1460   1.083       .  S
C1453      C1454   1.208       .  T
C1455      C1456   1.209       .  T
C1461      C1462   1.402       .  A
C1461      C1466   1.403       .  A
C1461      C1469   1.446       .  S
C1462      C1463   1.400       .  A
C1462      H1471   1.083       .  S
C1463      C1464   1.402       .  A
C1463      H1472   1.083       .  S
C1464      C1465   1.403       .  A
C1464      C1467   1.446       .  S
C1465      C1466   1.402       .  A
C1465      H1473   1.083       .  S
C1466      H1474   1.083       .  S
C1467      C1468   1.210       .  T
C1469      C1470   1.210       .  T
C1475      C1476   1.402       .  A
C1475      C1480   1.400       .  A
C1475      C1483   1.438       .  S
C1476      C1477   1.400       .  A
C1476      H1485   1.083       .  S
C1477      C1478   1.402       .  A
C1477      H1486   1.083       .  S
C1478      C1479   1.401       .  A
C1478      C1481   1.439       .  S
C1479      C1480   1.397       .  A
C1479      H1487   1.084       .  S
C1480      H1488   1.084       .  S
C1481      C1482   1.206       .  T
C1483      C1484   1.205       .  T
C1489      C1490   1.402       .  A
C1489      C1494   1.401       .  A
C1489      C1497   1.442       .  S
C1490      C1491   1.400       .  A
C1490      H1499   1.083       .  S
C1491      C1492   1.402   1_455  A
C1491      H1500   1.083       .  S
C1492      C1493   1.402       .  A
C1492      C1495   1.442       .  S
C1493      C1494   1.399   1_655  A
C1493      H1501   1.083       .  S
C1494      H1502   1.083   1_455  S
C1495      C1496   1.207       .  T
C1497      C1498   1.207       .  T
C1503      C1504   1.402       .  A
C1503      C1508   1.401       .  A
C1503      C1511   1.440       .  S
C1504      C1505   1.399       .  A
C1504      H1513   1.083       .  S
C1505      C1506   1.401       .  A
C1505      H1514   1.084       .  S
C1506      C1507   1.401       .  A
C1506      C1509   1.439       .  S
C1507      C1508   1.398       .  A
C1507      H1515   1.083       .  S
C1508      H1516   1.083       .  S
C1509      C1510   1.205       .  T
C1511      C1512   1.206       .  T
C1517      C1518   1.400       .  A
C1517      C1522   1.402       .  A
C1517      C1525   1.441       .  S
C1518      C1519   1.398       .  A
C1518      H1527   1.083       .  S
C1519      C1520   1.401       .  A
C1519      H1528   1.083       .  S
C1520      C1521   1.402       .  A
C1520      C1523   1.440       .  S
C1521      C1522   1.401       .  A
C1521      H1529   1.083       .  S
C1522      H1530   1.083       .  S
C1523      C1524   1.206       .  T
C1525      C1526   1.206       .  T
C1531      C1532   1.403       .  A
C1531      C1536   1.402       .  A
C1531      C1539   1.445       .  S
C1532      C1533   1.402       .  A
C1532      H1541   1.083       .  S
C1533      C1534   1.403       .  A
C1533      H1542   1.083       .  S
C1534      C1535   1.402       .  A
C1534      C1537   1.446       .  S
C1535      C1536   1.400       .  A
C1535      H1543   1.083       .  S
C1536      H1544   1.083       .  S
C1537      C1538   1.210       .  T
C1539      C1540   1.209       .  T
C1545      C1546   1.401       .  A
C1545      C1550   1.401       .  A
C1545      C1553   1.438       .  S
C1546      C1547   1.397       .  A
C1546      H1555   1.084       .  S
C1547      C1548   1.400       .  A
C1547      H1556   1.084       .  S
C1548      C1549   1.402       .  A
C1548      C1551   1.438       .  S
C1549      C1550   1.399       .  A
C1549      H1557   1.083       .  S
C1550      H1558   1.083       .  S
C1551      C1552   1.205       .  T
C1553      C1554   1.205       .  T
C1559      C1560   1.403       .  A
C1559      C1564   1.403       .  A
C1559      C1567   1.448       .  S
C1560      C1561   1.402       .  A
C1560      H1569   1.083       .  S
C1561      C1562   1.402       .  A
C1561      H1570   1.083       .  S
C1562      C1563   1.402       .  A
C1562      C1565   1.446       .  S
C1563      C1564   1.402       .  A
C1563      H1571   1.083       .  S
C1564      H1572   1.083       .  S
C1565      C1566   1.209       .  T
C1567      C1568   1.211       .  T
C1573      C1574   1.401       .  A
C1573      C1578   1.402       .  A
C1573      C1581   1.441       .  S
C1574      C1575   1.399       .  A
C1574      H1583   1.083       .  S
C1575      C1576   1.401       .  A
C1575      H1584   1.083       .  S
C1576      C1577   1.402       .  A
C1576      C1579   1.440       .  S
C1577      C1578   1.400       .  A
C1577      H1585   1.084       .  S
C1578      H1586   1.083       .  S
C1579      C1580   1.206       .  T
C1581      C1582   1.207       .  T
C1587      C1588   1.402       .  A
C1587      C1592   1.401   1_545  A
C1587      C1595   1.442       .  S
C1588      C1589   1.400   1_545  A
C1588      H1597   1.083       .  S
C1589      C1590   1.401       .  A
C1589      H1598   1.083       .  S
C1590      C1591   1.401       .  A
C1590      C1593   1.439       .  S
C1591      C1592   1.399       .  A
C1591      H1599   1.084       .  S
C1592      H1600   1.083       .  S
C1593      C1594   1.205       .  T
C1595      C1596   1.207       .  T
C1601      C1602   1.401       .  A
C1601      C1606   1.401       .  A
C1601      C1609   1.436   1_655  S
C1602      C1603   1.398       .  A
C1602      H1611   1.084       .  S
C1603      C1604   1.401       .  A
C1603      H1612   1.084       .  S
C1604      C1605   1.401       .  A
C1604      C1607   1.436       .  S
C1605      C1606   1.398       .  A
C1605      H1613   1.083       .  S
C1606      H1614   1.083       .  S
C1607      C1608   1.204       .  T
C1609      C1610   1.204       .  T
C1615      C1616   1.402   1_565  A
C1615      C1620   1.401       .  A
C1615      C1623   1.441       .  S
C1616      C1617   1.400       .  A
C1616      H1625   1.083       .  S
C1617      C1618   1.401       .  A
C1617      H1626   1.083       .  S
C1618      C1619   1.402       .  A
C1618      C1621   1.441       .  S
C1619      C1620   1.399   1_545  A
C1619      H1627   1.083       .  S
C1620      H1628   1.084       .  S
C1621      C1622   1.207       .  T
C1623      C1624   1.206       .  T
C1629      C1630   1.401       .  A
C1629      C1634   1.402       .  A
C1629      C1637   1.439       .  S
C1630      C1631   1.397       .  A
C1630      H1639   1.084       .  S
C1631      C1632   1.401       .  A
C1631      H1640   1.084       .  S
C1632      C1633   1.402       .  A
C1632      C1635   1.439       .  S
C1633      C1634   1.400       .  A
C1633      H1641   1.083       .  S
C1634      H1642   1.083       .  S
C1635      C1636   1.205       .  T
C1637      C1638   1.206       .  T
C1643      C1644   1.402       .  A
C1643      C1648   1.400       .  A
C1643      C1651   1.441       .  S
C1644      C1645   1.401       .  A
C1644      H1653   1.083       .  S
C1645      C1646   1.402       .  A
C1645      H1654   1.083       .  S
C1646      C1647   1.401       .  A
C1646      C1649   1.441       .  S
C1647      C1648   1.398       .  A
C1647      H1655   1.083       .  S
C1648      H1656   1.084       .  S
C1649      C1650   1.207       .  T
C1651      C1652   1.206       .  T
