geometry optimzed in LAMMPS
_audit_creation_date              2020-11-30 
_audit_creation_method            'lammps2cif' 
_symmetry_space_group_name_H-M    'P1' 
_symmetry_Int_Tables_number       1 
_symmetry_cell_setting            triclinic 
loop_ 
_symmetry_equiv_pos_as_xyz 
  x,y,z 
_cell_length_a                    50.43932761 
_cell_length_b                    51.00695771386096 
_cell_length_c                    48.67628534413635 
_cell_angle_alpha                 89.81386163043504 
_cell_angle_beta                  89.76771425856468 
_cell_angle_gamma                 119.22851904023003 
loop_ 
_atom_site_label 
_atom_site_type_symbol 
_atom_site_fract_x 
_atom_site_fract_y 
_atom_site_fract_z 
_atom_site_charge 
Fe1        Fe  0.20197253  0.36874195  0.99730458     1.65800
Fe2        Fe  0.12740930  0.33260612  0.50237687     1.73200
Fe3        Fe  0.16169636  0.28915497  0.50194081     1.54400
O4          O  0.19755863  0.30078541  0.47471452    -0.81500
O5          O  0.10761391  0.30595291  0.03043764    -0.79800
O6          O  0.21756144  0.34980029  0.46740666    -0.84000
O7          O  0.22188935  0.35124623  0.02277240    -0.78900
O8          O  0.13284522  0.27518075  0.46871938    -0.80700
O9          O  0.14205375  0.37108018  0.02307561    -0.83400
C10         C  0.21492493  0.32684767  0.03528028     0.97400
C11         C  0.21537676  0.32457204  0.46166175     1.04800
O12         O  0.16437788  0.32896924  0.50189089    -1.12400
O13         O  0.14067175  0.35948209  0.46744919    -0.74800
O14         O  0.19052259  0.38731149  0.47353936    -0.78300
O15         O  0.19001700  0.30301159  0.03122741    -0.79000
C16         C  0.16626485  0.38180312  0.46114729     0.96300
O17         O  0.19058507  0.38519724  0.03131347    -0.77000
O18         O  0.10368614  0.29569174  0.47747299    -0.82200
C19         C  0.10740646  0.28141815  0.03579870     0.98900
C20         C  0.10900592  0.27707839  0.46464811     1.04800
O21         O  0.12490246  0.27368800  0.02372351    -0.77800
C22         C  0.16672866  0.38701573  0.03589104     1.03100
Fe23       Fe  0.37210530  0.16478859  0.49883927     1.65800
Fe24       Fe  0.29603221  0.13141590  0.00050699     1.73200
Fe25       Fe  0.33501840  0.20732139  0.00125324     1.54400
O26         O  0.36328061  0.22230566  0.03457021    -0.81500
O27         O  0.27356470  0.14801898  0.47839486    -0.79800
O28         O  0.39514468  0.20461728  0.02766807    -0.84000
O29         O  0.38762074  0.19103729  0.46326481    -0.78900
O30         O  0.29846295  0.19215683  0.02865109    -0.80700
O31         O  0.30401729  0.11270770  0.46891239    -0.83400
C32         C  0.38891995  0.21628147  0.45897163     0.97400
C33         C  0.38760980  0.22196266  0.04012228     1.04800
O34         O  0.33474850  0.16890510  0.00088179    -1.12400
O35         O  0.31151504  0.10874758  0.02536033    -0.74800
O36         O  0.35984197  0.14000379  0.03531968    -0.78300
O37         O  0.37228613  0.22439931  0.47203002    -0.79000
C38         C  0.33547935  0.11530745  0.03881770     0.96300
O39         O  0.35273498  0.12620254  0.47537909    -0.77000
O40         O  0.28118926  0.14326697  0.03515775    -0.82200
C41         C  0.28087599  0.17219472  0.46528281     0.98900
C42         C  0.28155112  0.16757987  0.04131712     1.04800
O43         O  0.30673520  0.19540924  0.46755923    -0.77800
C44         C  0.32711919  0.10953664  0.46440763     1.03100
C45         C  0.47418504  0.50623231  0.14073385     0.02400
C46         C  0.49959134  0.02005480  0.12540886     0.02400
C47         C  0.02974844  0.02665946  0.13758619     0.02400
C48         C  0.02868808  0.49658539  0.13324592     0.02400
C49         C  0.49596021  0.47257020  0.13901503     0.02400
C50         C  0.47018441  0.47667687  0.14037353     0.02400
C51         C  0.30999540  0.48284609  0.14446186     0.80400
N52         N  0.33814492  0.48578401  0.14548924    -0.77900
C53         C  0.36154960  0.50822443  0.13172652     0.82800
N54         N  0.35676996  0.01627426  0.10512656    -0.77900
C55         C  0.33104266  0.01862380  0.10556173     0.82900
N56         N  0.30528837  0.50287348  0.12946400    -0.79600
C57         C  0.19214685  0.01321556  0.14517702     0.80400
N58         N  0.16545063  0.01346386  0.14744573    -0.77900
C59         C  0.13953736  0.48942029  0.13862781     0.82800
N60         N  0.14274171  0.47070038  0.12108341    -0.77900
C61         C  0.16918454  0.47012623  0.11864379     0.82900
N62         N  0.19342838  0.48931278  0.13416199    -0.79600
C63         C  0.19498749  0.16600000  0.12125283     0.80400
N64         N  0.19851771  0.18947356  0.13704053    -0.77900
C65         C  0.17515158  0.18668082  0.15320102     0.82800
N66         N  0.14831879  0.16060294  0.15342856    -0.77900
C67         C  0.14465458  0.13720817  0.13772487     0.82900
N68         N  0.16795426  0.14011216  0.12175198    -0.79600
C69         C  0.48135883  0.16425356  0.14236376     0.80400
N70         N  0.50394288  0.18810221  0.12855648    -0.77900
C71         C  0.02611956  0.19259861  0.11464154     0.82800
N72         N  0.02965952  0.16798398  0.11801663    -0.77900
C73         C  0.50300702  0.13446636  0.12913193     0.82900
N74         N  0.48130278  0.13765094  0.14268598    -0.79600
C75         C  0.31166563  0.33355396  0.10379868     0.80400
N76         N  0.30865285  0.30997920  0.11932207    -0.77900
C77         C  0.33133165  0.31333615  0.13641593     0.82800
N78         N  0.35672357  0.34049489  0.13845669    -0.77900
C79         C  0.35983737  0.36431867  0.12342978     0.82900
N80         N  0.33730044  0.36071459  0.10605921    -0.79600
C81         C  0.02662004  0.32935441  0.13299184     0.80400
N82         N  0.02457952  0.35477538  0.13588605    -0.77900
C83         C  0.48604548  0.35516241  0.14042666     0.82800
N84         N  0.46747461  0.33262819  0.12371720    -0.77900
C85         C  0.47077435  0.30798645  0.12002835     0.82900
N86         N  0.49416606  0.30667184  0.13298042    -0.79600
Fe87       Fe  0.33593091  0.13075815  0.24860843     1.65800
Fe88       Fe  0.29102225  0.16387578  0.24335526     1.73200
Fe89       Fe  0.36871067  0.20754617  0.24617536     1.54400
O90         O  0.38769806  0.19680119  0.27893215    -0.81500
O91         O  0.30418440  0.19768444  0.21367013    -0.79800
O92         O  0.36572787  0.14694238  0.28097462    -0.84000
O93         O  0.37107240  0.14674050  0.22042830    -0.78900
O94         O  0.34986450  0.22406094  0.27409502    -0.80700
O95         O  0.27730451  0.13164285  0.21248368    -0.83400
C96         C  0.39126369  0.17197112  0.21107150     0.97400
C97         C  0.38438991  0.17275340  0.28989332     1.04800
O98         O  0.33182793  0.16737793  0.24588921    -1.12400
O99         O  0.27196062  0.13004187  0.27314799    -0.74800
O100        O  0.30155677  0.10928105  0.27708145    -0.78300
O101        O  0.39279708  0.19651398  0.21833716    -0.79000
C102        C  0.27803297  0.11072712  0.28373882     0.96300
O103        O  0.30575785  0.10929017  0.21728276    -0.77000
O104        O  0.29952968  0.19526763  0.27412126    -0.82200
C105        C  0.32916654  0.21929101  0.20484953     0.98900
C106        C  0.32364880  0.21764290  0.28293422     1.04800
O107        O  0.35476880  0.22408208  0.21369161    -0.77800
C108        C  0.28399796  0.11128611  0.20639479     1.03100
Fe109      Fe  0.13102536  0.29356185  0.25023281     1.65800
Fe110      Fe  0.20755111  0.33731216  0.25350187     1.73200
Fe111      Fe  0.16215831  0.36908320  0.24778006     1.54400
O112        O  0.13601537  0.35279938  0.21292845    -0.81500
O113        O  0.22360531  0.37541308  0.27773914    -0.79800
O114        O  0.10722544  0.30425047  0.22202919    -0.84000
O115        O  0.11098202  0.30360128  0.28239112    -0.78900
O116        O  0.19977750  0.39145475  0.22273000    -0.80700
O117        O  0.19660273  0.31081268  0.28880149    -0.83400
C118        C  0.10770677  0.32653832  0.28543012     0.97400
C119        C  0.11325602  0.32734843  0.20780221     1.04800
O120        O  0.16697207  0.33342097  0.25076680    -1.12400
O121        O  0.19659081  0.29982644  0.22920547    -0.74800
O122        O  0.14783311  0.28016893  0.21799091    -0.78300
O123        O  0.12372398  0.35098895  0.27241885    -0.79000
C124        C  0.17348173  0.28153199  0.21549843     0.96300
O125        O  0.14945435  0.27685469  0.27812595    -0.77000
O126        O  0.22296715  0.36411545  0.21857925    -0.82200
C127        C  0.21448731  0.39273194  0.28774984     0.98900
C128        C  0.22009744  0.38673990  0.21206219     1.04800
O129        O  0.18856380  0.38971930  0.28211944    -0.77800
C130        C  0.17312703  0.28541121  0.29260877     1.03100
C131        C  0.02424980  0.00020842  0.36502109     0.02400
C132        C  0.00096804  0.47427550  0.36692765     0.02400
C133        C  0.46825429  0.47281494  0.36039111     0.02400
C134        C  0.46792229  0.00218140  0.36148964     0.02400
C135        C  0.99678873  0.02870550  0.36464646     0.02400
C136        C  0.02465094  0.02822417  0.36495425     0.02400
C137        C  0.19012787  0.02547140  0.36200270     0.80400
N138        N  0.16263150  0.02397229  0.36223685    -0.77900
C139        C  0.13911254  0.00254875  0.37676847     0.82800
N140        N  0.14168739  0.47222905  0.38719797    -0.77900
C141        C  0.16877178  0.47264678  0.38868895     0.82900
N142        N  0.19387411  0.00440479  0.37644762    -0.79600
C143        C  0.30781763  0.48891655  0.35285156     0.80400
N144        N  0.29862540  0.00058756  0.37313175    -0.77900
C145        C  0.32157096  0.01853239  0.39054527     0.82800
N146        N  0.34813541  0.01781922  0.38985372    -0.77900
C147        C  0.35234982  0.99980847  0.37223404     0.82900
N148        N  0.33432336  0.48818716  0.35348379    -0.79600
C149        C  0.47083997  0.17152530  0.36558330     0.80400
N150        N  0.46983260  0.14445791  0.36534324    -0.77900
C151        C  0.49054370  0.13998433  0.37921546     0.82800
N152        N  0.01233339  0.16087712  0.39656433    -0.77900
C153        C  0.01270202  0.18761384  0.39845013     0.82900
N154        N  0.49272978  0.19447078  0.38030070    -0.79600
C155        C  0.18823626  0.16954961  0.39407472     0.80400
N156        N  0.19070352  0.19349200  0.37931152    -0.77900
C157        C  0.16705785  0.19040522  0.36351720     0.82800
N158        N  0.14162708  0.16329247  0.36257171    -0.77900
C159        C  0.13877977  0.13938330  0.37697113     0.82900
N160        N  0.16215491  0.14265115  0.39291485    -0.79600
C161        C  0.02292915  0.33015967  0.36284272     0.80400
N162        N  0.02351919  0.35701599  0.36232924    -0.77900
C163        C  0.00439758  0.36221362  0.37792825     0.82800
N164        N  0.47805565  0.33603397  0.38641429    -0.77900
C165        C  0.47919218  0.31001067  0.38878529     0.82900
N166        N  0.00261848  0.30784391  0.37944588    -0.79600
C167        C  0.30404544  0.33024798  0.38304525     0.80400
N168        N  0.30260869  0.30609638  0.36986986    -0.77900
C169        C  0.32725967  0.30851967  0.35616335     0.82800
N170        N  0.35331818  0.33534680  0.35565277    -0.77900
C171        C  0.35512616  0.35963354  0.36881162     0.82900
N172        N  0.33037300  0.35690997  0.38246015    -0.79600
C173        C  0.48528696  0.06965685  0.34817305    -0.12100
C174        C  0.99613012  0.05723944  0.36973200     0.04900
C175        C  0.00201863  0.07106454  0.39591315    -0.07400
C176        C  0.00051781  0.09774891  0.39911311    -0.08200
C177        C  0.49119965  0.11140758  0.37617632    -0.02700
C178        C  0.48401950  0.09621943  0.35088305     0.04100
N179        N  0.47794987  0.10884953  0.32704741     0.66600
H180        H  0.48088067  0.05902007  0.32832656     0.15500
H181        H  0.00467302  0.10827702  0.41911753     0.15200
N182        N  0.00927761  0.05846999  0.41934803     0.74300
O183        O  0.49901350  0.13219556  0.31596550    -0.39100
O184        O  0.45120610  0.09780576  0.31807419    -0.39100
O185        O  0.02615681  0.07546740  0.43803373    -0.39800
O186        O  0.99744005  0.03039481  0.42248528    -0.39800
C187        C  0.07088011  0.06227940  0.39207545    -0.12100
C188        C  0.05416762  0.05681226  0.36761748     0.04900
C189        C  0.06567433  0.07884330  0.34657311    -0.07400
C190        C  0.09359221  0.10484222  0.35009210    -0.08200
C191        C  0.11033192  0.11028770  0.37436780    -0.02700
C192        C  0.09873728  0.08863924  0.39557047     0.04100
N193        N  0.11425752  0.09360694  0.42113482     0.66600
H194        H  0.06186089  0.04628200  0.40885392     0.15500
H195        H  0.10228539  0.12093029  0.33343745     0.15200
N196        N  0.04921110  0.07609947  0.32184792     0.74300
O197        O  0.11350682  0.11175642  0.43826606    -0.39100
O198        O  0.13147849  0.08254584  0.42523857    -0.39100
O199        O  0.04441250  0.09730420  0.31500478    -0.39800
O200        O  0.04738321  0.05775382  0.30368420    -0.39800
C201        C  0.40154309  0.39530475  0.34313072    -0.12100
C202        C  0.38341194  0.38905997  0.36677563     0.04900
C203        C  0.39266417  0.41110507  0.38745092    -0.07400
C204        C  0.41984980  0.43820469  0.38436149    -0.08200
C205        C  0.43820816  0.44444394  0.36084003    -0.02700
C206        C  0.42849765  0.42260565  0.33975018     0.04100
N207        N  0.44520462  0.42730429  0.31467165     0.66600
H208        H  0.39451571  0.37897486  0.32675712     0.15500
H209        H  0.42737789  0.45397230  0.40117584     0.15200
N210        N  0.37580306  0.40589973  0.41243206     0.74300
O211        O  0.45387095  0.40871479  0.30833437    -0.39100
O212        O  0.44121477  0.44162437  0.29548401    -0.39100
O213        O  0.38097565  0.39300877  0.43220163    -0.39800
O214        O  0.36243698  0.42086202  0.41710081    -0.39800
C215        C  0.43131434  0.50794326  0.38920233    -0.12100
C216        C  0.43849093  0.00241715  0.36357879     0.04900
C217        C  0.41979038  0.99811650  0.34067311    -0.07400
C218        C  0.39187689  0.99716864  0.34430357    -0.08200
C219        C  0.38202597  0.00077156  0.37022958    -0.02700
C220        C  0.40430587  0.50921822  0.39211328     0.04100
N221        N  0.39502817  0.51292823  0.41892897     0.66600
H222        H  0.44446481  0.50987373  0.40729595     0.15500
H223        H  0.37812231  0.99439440  0.32638481     0.15200
N224        N  0.42862354  0.99514699  0.31346114     0.74300
O225        O  0.37921383  0.49003673  0.43363447    -0.39100
O226        O  0.40832996  0.53846526  0.43001605    -0.39100
O227        O  0.44469195  0.01867172  0.29962944    -0.39800
O228        O  0.41194576  0.97121753  0.30070005    -0.39800
C229        C  0.10012645  0.00453963  0.34839038    -0.12100
C230        C  0.10913873  0.00032153  0.37434995     0.04900
C231        C  0.09082631  0.48734364  0.39399164    -0.07400
C232        C  0.06508735  0.49078397  0.39177172    -0.08200
C233        C  0.05323769  0.99925877  0.36743032    -0.02700
C234        C  0.07266194  0.00430693  0.34462486     0.04100
N235        N  0.06607868  0.01070489  0.31767384     0.66600
H236        H  0.11479141  0.00841359  0.33073276     0.15500
H237        H  0.05066256  0.48648605  0.40958273     0.15200
N238        N  0.09736206  0.47806725  0.41963826     0.74300
O239        O  0.04997764  0.98909353  0.30204074    -0.39100
O240        O  0.08489887  0.03534314  0.30672699    -0.39100
O241        O  0.11904048  0.49671541  0.43412703    -0.39800
O242        O  0.08436882  0.45051386  0.42585950    -0.39800
C243        C  0.01388578  0.43614738  0.34966371    -0.12100
C244        C  0.00086500  0.44502563  0.37053658     0.04900
C245        C  0.48516990  0.42370427  0.38892934    -0.07400
C246        C  0.48531128  0.39625320  0.38957570    -0.08200
C247        C  0.00416820  0.39119984  0.37530454    -0.02700
C248        C  0.01631497  0.41014828  0.35199791     0.04100
N249        N  0.03119155  0.40367196  0.33015072     0.66600
H250        H  0.02216930  0.44933822  0.33149905     0.15500
H251        H  0.47819157  0.38303234  0.40804499     0.15200
N252        N  0.47671752  0.43329370  0.41340545     0.74300
O253        O  0.01698790  0.39284376  0.30812102    -0.39100
O254        O  0.05983675  0.41631143  0.32995495    -0.39100
O255        O  0.49743305  0.45090117  0.42928131    -0.39800
O256        O  0.45044332  0.41710857  0.42324504    -0.39800
C257        C  0.14560821  0.23565275  0.31494748    -0.12100
C258        C  0.17232543  0.26347484  0.31345311     0.04900
C259        C  0.19699469  0.26791443  0.33026856    -0.07400
C260        C  0.19484259  0.24418009  0.34681186    -0.08200
C261        C  0.16837063  0.21584165  0.34709885    -0.02700
C262        C  0.14332064  0.21217396  0.33109300     0.04100
N263        N  0.11528812  0.18452536  0.32993430     0.66600
H264        H  0.12594223  0.23134560  0.30281909     0.15500
H265        H  0.21415385  0.24795953  0.35922728     0.15200
N266        N  0.22413910  0.29626997  0.33123919     0.74300
O267        O  0.09356217  0.18094937  0.34532900    -0.39100
O268        O  0.10970107  0.16827040  0.30891857    -0.39100
O269        O  0.22733439  0.31421519  0.35034074    -0.39800
O270        O  0.24712162  0.30016496  0.31760757    -0.39800
C271        C  0.07710013  0.30764985  0.32874990    -0.12100
C272        C  0.08411893  0.32491694  0.30447792     0.04900
C273        C  0.06849166  0.34083608  0.29871139    -0.07400
C274        C  0.04781658  0.34073610  0.31766860    -0.08200
C275        C  0.04219289  0.32533612  0.34278900    -0.02700
C276        C  0.05624450  0.30771975  0.34798476     0.04100
N277        N  0.05053566  0.29072753  0.37283816     0.66600
H278        H  0.08853281  0.29486105  0.33321756     0.15500
H279        H  0.03619729  0.35315343  0.31263948     0.15200
N280        N  0.07287162  0.35689578  0.27345056     0.74300
O281        O  0.03267674  0.26279205  0.37249144    -0.39100
O282        O  0.06846020  0.30182856  0.39274564    -0.39100
O283        O  0.05456705  0.34441751  0.25398393    -0.39800
O284        O  0.08976818  0.38504249  0.27304857    -0.39800
C285        C  0.25240356  0.45752737  0.33981502    -0.12100
C286        C  0.28329096  0.46716783  0.33438584     0.04900
C287        C  0.29044594  0.45336923  0.31245469    -0.07400
C288        C  0.26748454  0.42944119  0.29834346    -0.08200
C289        C  0.23672504  0.41860390  0.30449598    -0.02700
C290        C  0.22913969  0.43364818  0.32490708     0.04100
N291        N  0.19820076  0.42441995  0.33154647     0.66600
H292        H  0.24621044  0.46781845  0.35624333     0.15500
H293        H  0.27408924  0.41950441  0.28188543     0.15200
N294        N  0.32103745  0.46340486  0.30371550     0.74300
O295        O  0.18552087  0.40620188  0.35114939    -0.39100
O296        O  0.18650815  0.43976139  0.32279030    -0.39100
O297        O  0.33324220  0.44752101  0.30920084    -0.39800
O298        O  0.33241624  0.48308725  0.28502347    -0.39800
C299        C  0.41787681  0.15232704  0.35060341    -0.12100
C300        C  0.44825154  0.17522565  0.34924691     0.04900
C301        C  0.45642154  0.19913272  0.33045393    -0.07400
C302        C  0.43457018  0.19887588  0.31262879    -0.08200
C303        C  0.40466355  0.17492857  0.31273403    -0.02700
C304        C  0.39608731  0.15205170  0.33274526     0.04100
N305        N  0.36533845  0.12859223  0.33550853     0.66600
H306        H  0.41110176  0.13415201  0.36533657     0.15500
H307        H  0.44166503  0.21652794  0.29729969     0.15200
N308        N  0.48715050  0.22244231  0.32726937     0.74300
O309        O  0.35792018  0.10282066  0.32634182    -0.39100
O310        O  0.34821135  0.13152190  0.35272878    -0.39100
O311        O  0.50508174  0.21752007  0.31282729    -0.39800
O312        O  0.49328275  0.24923489  0.33130242    -0.39800
C313        C  0.23692841  0.09624283  0.31883926    -0.12100
C314        C  0.25673813  0.08902737  0.30462018     0.04900
C315        C  0.25503737  0.06089982  0.31019133    -0.07400
C316        C  0.23397729  0.04106307  0.32954679    -0.08200
C317        C  0.21430413  0.04839124  0.34383453    -0.02700
C318        C  0.21580932  0.07638317  0.33801094     0.04100
N319        N  0.19564286  0.08493955  0.35086477     0.66600
H320        H  0.23758280  0.11747694  0.31493520     0.15500
H321        H  0.23225852  0.01923652  0.33260389     0.15200
N322        N  0.27301808  0.05109433  0.29520698     0.74300
O323        O  0.20427850  0.10129897  0.37193221    -0.39100
O324        O  0.17310404  0.08255442  0.33762580    -0.39100
O325        O  0.29519275  0.05081313  0.30682722    -0.39800
O326        O  0.26240794  0.03602369  0.27359883    -0.39800
C327        C  0.29879047  0.26529693  0.32477503    -0.12100
C328        C  0.32513041  0.28293468  0.34006167     0.04900
C329        C  0.34959272  0.27694609  0.33819705    -0.07400
C330        C  0.34777614  0.25457632  0.32050384    -0.08200
C331        C  0.32206002  0.23785149  0.30411169    -0.02700
C332        C  0.29701779  0.24295767  0.30688458     0.04100
N333        N  0.27047524  0.22728270  0.29041965     0.66600
H334        H  0.27981748  0.26961848  0.32590966     0.15500
H335        H  0.36706784  0.25074490  0.31918739     0.15200
N336        N  0.37644994  0.29318598  0.35419977     0.74300
O337        O  0.24732021  0.20503016  0.30053652    -0.39100
O338        O  0.26772291  0.23975902  0.26901835    -0.39100
O339        O  0.37969408  0.28123915  0.37574620    -0.39800
O340        O  0.39944204  0.31505051  0.34341008    -0.39800
C341        C  0.10079945  0.35054919  0.16846444    -0.12100
C342        C  0.09255822  0.32511389  0.18510635     0.04900
C343        C  0.06398577  0.29917616  0.18062845    -0.07400
C344        C  0.04363381  0.30032142  0.16181502    -0.08200
C345        C  0.05101397  0.32678649  0.14727075    -0.02700
C346        C  0.08046625  0.35155032  0.14966901     0.04100
N347        N  0.09030082  0.37779429  0.13293352     0.66600
H348        H  0.12295285  0.37026347  0.17046257     0.15500
H349        H  0.02121495  0.28094400  0.15989988     0.15200
N350        N  0.05440287  0.27196432  0.19583687     0.74300
O351        O  0.09372165  0.40170402  0.14368794    -0.39100
O352        O  0.10305074  0.37922703  0.11019701    -0.39100
O353        O  0.03771360  0.26688060  0.21677333    -0.39800
O354        O  0.05570817  0.25037922  0.18456229    -0.39800
C355        C  0.30740858  0.25154706  0.18992082    -0.12100
C356        C  0.32835963  0.24130902  0.18514888     0.04900
C357        C  0.34994932  0.25484346  0.16372574    -0.07400
C358        C  0.35004526  0.27780730  0.14769152    -0.08200
C359        C  0.32896114  0.28770136  0.15247416    -0.02700
C360        C  0.30740212  0.27438462  0.17371029     0.04100
N361        N  0.28707859  0.28552375  0.18037833     0.66600
H362        H  0.29213860  0.24290364  0.20736292     0.15500
H363        H  0.36694910  0.28822478  0.13155939     0.15200
N364        N  0.37206448  0.24576235  0.15798469     0.74300
O365        O  0.26226160  0.27576902  0.16775976    -0.39100
O366        O  0.29595229  0.30820235  0.19563397    -0.39100
O367        O  0.36811795  0.22888596  0.13773278    -0.39800
O368        O  0.39833737  0.26067764  0.16792945    -0.39800
C369        C  0.40666636  0.14508304  0.17787311    -0.12100
C370        C  0.41387506  0.17204276  0.19126331     0.04900
C371        C  0.44299212  0.19721405  0.18673216    -0.07400
C372        C  0.46422946  0.19451196  0.16992385    -0.08200
C373        C  0.45731791  0.16706798  0.15762147    -0.02700
C374        C  0.42789371  0.14225072  0.16151062     0.04100
N375        N  0.41880639  0.11387090  0.14892129     0.66600
H376        H  0.38440330  0.12556891  0.18053233     0.15500
H377        H  0.48672450  0.21373154  0.16745768     0.15200
N378        N  0.45223080  0.22510736  0.20031863     0.74300
O379        O  0.42007472  0.09351462  0.16268273    -0.39100
O380        O  0.40155123  0.10653931  0.12838477    -0.39100
O381        O  0.46726834  0.23061743  0.22223406    -0.39800
O382        O  0.45219921  0.24647675  0.18721452    -0.39800
C383        C  0.19443676  0.24748733  0.20608907    -0.12100
C384        C  0.17600924  0.25953258  0.19749264     0.04900
C385        C  0.15801008  0.24775710  0.17374575    -0.07400
C386        C  0.15926931  0.22490991  0.15898125    -0.08200
C387        C  0.17722657  0.21264239  0.16796589    -0.02700
C388        C  0.19440545  0.22358116  0.19202813     0.04100
N389        N  0.20913225  0.20857040  0.20405226     0.66600
H390        H  0.20735476  0.25526120  0.22489379     0.15500
H391        H  0.14528973  0.21594348  0.14088153     0.15200
N392        N  0.13745143  0.25778490  0.16489620     0.74300
O393        O  0.23682482  0.21786728  0.19904708    -0.39100
O394        O  0.19645085  0.19049761  0.22375837    -0.39100
O395        O  0.14464474  0.27565256  0.14476997    -0.39800
O396        O  0.10994930  0.24317040  0.17223465    -0.39800
C397        C  0.23873328  0.06304753  0.14602009    -0.12100
C398        C  0.21866472  0.03637475  0.15986878     0.04900
C399        C  0.22126417  0.03440256  0.18846153    -0.07400
C400        C  0.24369293  0.05889235  0.20273098    -0.08200
C401        C  0.26293698  0.08600425  0.18916863    -0.02700
C402        C  0.26061709  0.08802077  0.16050908     0.04100
N403        N  0.27963486  0.11529721  0.14600154     0.66600
H404        H  0.23639314  0.06492504  0.12414911     0.15500
H405        H  0.24518427  0.05719884  0.22479566     0.15200
N406        N  0.20033847  0.00823041  0.20348157     0.74300
O407        O  0.30209121  0.11766295  0.13245675    -0.39100
O408        O  0.27028880  0.13382481  0.14177441    -0.39100
O409        O  0.20857923  0.98983520  0.21166741    -0.39800
O410        O  0.17664511  0.00699042  0.21351112    -0.39800
C411        C  0.24310614  0.43800415  0.19203541    -0.12100
C412        C  0.24189345  0.40984643  0.19259641     0.04900
C413        C  0.26269768  0.40574539  0.17603274    -0.07400
C414        C  0.28397550  0.42958699  0.15981422    -0.08200
C415        C  0.28529749  0.45773528  0.15981971    -0.02700
C416        C  0.26468521  0.46178153  0.17624345     0.04100
N417        N  0.26553481  0.49004353  0.17751622     0.66600
H418        H  0.22779729  0.44214922  0.20463498     0.15500
H419        H  0.29993313  0.42618216  0.14743043     0.15200
N420        N  0.26313960  0.37795494  0.17569623     0.74300
O421        O  0.24600824  0.49332758  0.16424022    -0.39100
O422        O  0.29252761  0.00652633  0.19337397    -0.39100
O423        O  0.25203966  0.36069369  0.15540978    -0.39800
O424        O  0.28122433  0.37467447  0.19132369    -0.39800
C425        C  0.07565888  0.06597691  0.11428880    -0.12100
C426        C  0.05978248  0.05461921  0.13893665     0.04900
C427        C  0.07262984  0.07006750  0.16367325    -0.07400
C428        C  0.10009708  0.09728122  0.16276782    -0.08200
C429        C  0.11551883  0.10887328  0.13780630    -0.02700
C430        C  0.10319781  0.09274325  0.11343939     0.04100
N431        N  0.11754517  0.10376669  0.08735727     0.66600
H432        H  0.06648254  0.05437254  0.09571215     0.15500
H433        H  0.10979503  0.10896392  0.18171647     0.15200
N434        N  0.05932585  0.05803515  0.18995130     0.74300
O435        O  0.13174094  0.09193898  0.07620490    -0.39100
O436        O  0.10980343  0.11947875  0.07292946    -0.39100
O437        O  0.07020907  0.04468385  0.20389514    -0.39800
O438        O  0.04601062  0.06983475  0.20263721    -0.39800
C439        C  0.00276584  0.07138991  0.16082011    -0.12100
C440        C  0.49902550  0.04885383  0.12506380     0.04900
C441        C  0.50422287  0.06640986  0.10102238    -0.07400
C442        C  0.50593587  0.09454431  0.10299757    -0.08200
C443        C  0.50175238  0.10513845  0.12827074    -0.02700
C444        C  0.00796462  0.10093224  0.16187519     0.04100
N445        N  0.01047044  0.11444864  0.18810861     0.66600
H446        H  0.99825832  0.05863289  0.17965761     0.15500
H447        H  0.50984689  0.10789985  0.08453249     0.15200
N448        N  0.50669226  0.05594189  0.07438946     0.74300
O449        O  0.98763024  0.10421984  0.20385926    -0.39100
O450        O  0.03655611  0.13042143  0.19810868    -0.39100
O451        O  0.53178744  0.06946376  0.06184043    -0.39800
O452        O  0.48295291  0.04239352  0.06021447    -0.39800
C453        C  0.07310318  0.00085688  0.15724296    -0.12100
C454        C  0.05704974  0.49446198  0.13367138     0.04900
C455        C  0.06817389  0.48593664  0.11070971    -0.07400
C456        C  0.09483053  0.48413744  0.11316874    -0.08200
C457        C  0.11118747  0.49127063  0.13788117    -0.02700
C458        C  0.10083098  0.00092191  0.15772570     0.04100
N459        N  0.11623275  0.00549403  0.18329257     0.66600
H460        H  0.06333090  0.00284188  0.17624625     0.15500
H461        H  0.10316789  0.47780532  0.09524463     0.15200
N462        N  0.05306176  0.47907414  0.08478814     0.74300
O463        O  0.13322798  0.03195891  0.19149488    -0.39100
O464        O  0.10755048  0.98392440  0.20009214    -0.39100
O465        O  0.04535090  0.45385866  0.07412218    -0.39800
O466        O  0.05583598  0.50027228  0.06946580    -0.39800
C467        C  0.49272070  0.42877272  0.16339777    -0.12100
C468        C  0.49214126  0.44174625  0.13824025     0.04900
C469        C  0.98373881  0.41978720  0.10897195    -0.07400
C470        C  0.98399317  0.39237612  0.10825660    -0.08200
C471        C  0.48500669  0.38345168  0.14065350    -0.02700
C472        C  0.48851822  0.39967828  0.16496022     0.04100
N473        N  0.48617115  0.38648894  0.19143003     0.66600
H474        H  0.49642544  0.44146846  0.18209782     0.15500
H475        H  0.97347535  0.37747570  0.09106326     0.15200
N476        N  0.96962686  0.42677580  0.08681336     0.74300
O477        O  0.50650588  0.40064413  0.20898457    -0.39100
O478        O  0.46051711  0.36607943  0.19955715    -0.39100
O479        O  0.98607690  0.44535828  0.06863257    -0.39800
O480        O  0.94228275  0.40857550  0.08121004    -0.39800
C481        C  0.42770390  0.44189667  0.11110242    -0.12100
C482        C  0.43938745  0.44989632  0.13759419     0.04900
C483        C  0.42339243  0.43037843  0.15968695    -0.07400
C484        C  0.39763356  0.40269048  0.15438229    -0.08200
C485        C  0.38677089  0.39419094  0.12758218    -0.02700
C486        C  0.40163418  0.41458752  0.10583565     0.04100
N487        N  0.39211948  0.40737734  0.07800023     0.66600
H488        H  0.43986074  0.45642621  0.09398434     0.15500
H489        H  0.38576391  0.38785736  0.17150490     0.15200
N490        N  0.43152619  0.43857992  0.18767962     0.74300
O491        O  0.38907795  0.42630857  0.06353509    -0.38300
O492        O  0.39529475  0.38708238  0.06621334    -0.39100
O493        O  0.44615664  0.42804500  0.20010504    -0.39800
O494        O  0.41460454  0.44517414  0.20177481    -0.39800
C495        C  0.39662687  0.98875151  0.14648636    -0.12100
C496        C  0.39168985  0.51091451  0.13318753     0.04900
C497        C  0.40518335  0.50593044  0.11000983    -0.07400
C498        C  0.43278811  0.50598270  0.11272783    -0.08200
C499        C  0.44710703  0.51062634  0.13837806    -0.02700
C500        C  0.42398357  0.98835162  0.14935057     0.04100
N501        N  0.43163450  0.98236409  0.17597564     0.66600
H502        H  0.38277410  0.98561079  0.16459663     0.15500
H503        H  0.44266200  0.50152788  0.09483133     0.15200
N504        N  0.39000968  0.49873023  0.08412145     0.74300
O505        O  0.44888019  0.00420345  0.19089375    -0.39100
O506        O  0.41340016  0.95788556  0.18754458    -0.39100
O507        O  0.39393797  0.51955226  0.06772607    -0.39800
O508        O  0.36896675  0.47232966  0.07976729    -0.39800
C509        C  0.30550872  0.07747967  0.42309069    -0.12100
C510        C  0.32414663  0.08510032  0.44627876     0.04900
C511        C  0.33952334  0.06887292  0.45204217    -0.07400
C512        C  0.33652678  0.04609376  0.43442619    -0.08200
C513        C  0.31912718  0.03932835  0.41039890    -0.02700
C514        C  0.30327264  0.05514911  0.40498283     0.04100
N515        N  0.28604093  0.05004419  0.38061117     0.66600
H516        H  0.29344354  0.08963299  0.41844565     0.15500
H517        H  0.34863350  0.03406443  0.43935709     0.15200
N518        N  0.35822263  0.07504219  0.47577497     0.74300
O519        O  0.25810232  0.03128616  0.38137003    -0.39100
O520        O  0.29617930  0.06969787  0.36186023    -0.39100
O521        O  0.34775251  0.05834036  0.49669530    -0.39800
O522        O  0.38656124  0.09185541  0.47341039    -0.39800
C523        C  0.30649992  0.06876076  0.06693253    -0.12100
C524        C  0.33475687  0.09250793  0.05833987     0.04900
C525        C  0.36141321  0.09221361  0.06652969    -0.07400
C526        C  0.35927687  0.06811138  0.08194988    -0.08200
C527        C  0.33105752  0.04397794  0.09016617    -0.02700
C528        C  0.30440018  0.04469204  0.08259604     0.04100
N529        N  0.27491355  0.02062415  0.08921185     0.66600
H530        H  0.28566586  0.06839417  0.06090503     0.15500
H531        H  0.38021220  0.06830364  0.08718389     0.15200
N532        N  0.39089973  0.11532705  0.05826667     0.74300
O533        O  0.26063880  0.02364159  0.10917224    -0.39100
O534        O  0.26034358  0.00126240  0.07112225    -0.39100
O535        O  0.40593212  0.13704525  0.07418251    -0.39800
O536        O  0.40423432  0.11074885  0.03839611    -0.39800
C537        C  0.26575756  0.18675147  0.42143012    -0.12100
C538        C  0.25775328  0.17326770  0.44750161     0.04900
C539        C  0.22722159  0.16018348  0.45633568    -0.07400
C540        C  0.20512012  0.15952735  0.43867207    -0.08200
C541        C  0.21289826  0.17241953  0.41232987    -0.02700
C542        C  0.24358733  0.18632395  0.40379670     0.04100
N543        N  0.25234780  0.19843341  0.37674777     0.66600
H544        H  0.28911946  0.19679933  0.41438359     0.15500
H545        H  0.18174487  0.14921426  0.44574278     0.15200
N546        N  0.21858443  0.14854754  0.48364138     0.74300
O547        O  0.26450447  0.22645379  0.37324509    -0.39100
O548        O  0.25460267  0.18245376  0.35813547    -0.39100
O549        O  0.22434397  0.16213676  0.00042799    -0.39800
O550        O  0.20448388  0.12054347  0.48778558    -0.39800
C551        C  0.42276878  0.26927737  0.44644217    -0.12100
C552        C  0.41202211  0.23893468  0.44002182     0.04900
C553        C  0.42419941  0.23198445  0.41674820    -0.07400
C554        C  0.44615931  0.25533979  0.40029168    -0.08200
C555        C  0.45687526  0.28569880  0.40698020    -0.02700
C556        C  0.44484577  0.29241024  0.43050453     0.04100
N557        N  0.45515194  0.32262119  0.43911121     0.66600
H558        H  0.41439376  0.27535949  0.46450272     0.15500
H559        H  0.45467255  0.24966028  0.38208896     0.15200
N560        N  0.41375634  0.20158231  0.40883586     0.74300
O561        O  0.43866915  0.33443655  0.43459383    -0.39100
O562        O  0.98121590  0.33123976  0.46633879    -0.39100
O563        O  0.39471823  0.19048321  0.38968662    -0.39800
O564        O  0.42850400  0.18867521  0.41611830    -0.39800
C565        C  0.26351479  0.19449983  0.07278511    -0.12100
C566        C  0.26103316  0.16722233  0.06363591     0.04900
C567        C  0.23787670  0.14007396  0.07513066    -0.07400
C568        C  0.21785858  0.14072076  0.09461575    -0.08200
C569        C  0.21953691  0.16780698  0.10298210    -0.02700
C570        C  0.24305084  0.19504002  0.09212138     0.04100
N571        N  0.24554817  0.22332509  0.09912655     0.66600
H572        H  0.28097982  0.21565353  0.06438679     0.15500
H573        H  0.20025585  0.11947532  0.10275106     0.15200
N574        N  0.23306074  0.11137653  0.06632719     0.74300
O575        O  0.26413981  0.23913164  0.11736961    -0.39100
O576        O  0.23496851  0.23530693  0.08301553    -0.39100
O577        O  0.21147112  0.09602118  0.05020905    -0.39800
O578        O  0.24555738  0.09884419  0.07917913    -0.39800
C579        C  0.42506831  0.28746148  0.09013541    -0.12100
C580        C  0.44909759  0.28410073  0.10093840     0.04900
C581        C  0.45177238  0.25904541  0.09228908    -0.07400
C582        C  0.43136270  0.23882263  0.07294856    -0.08200
C583        C  0.40800390  0.24293388  0.06162909    -0.02700
C584        C  0.40506516  0.26773935  0.07069574     0.04100
N585        N  0.38290440  0.27445283  0.05945582     0.66600
H586        H  0.42187438  0.30613984  0.09620309     0.15500
H587        H  0.43424197  0.22008313  0.06641105     0.15200
N588        N  0.47602965  0.25460894  0.10153195     0.74300
O589        O  0.35878819  0.26724729  0.07280410    -0.39100
O590        O  0.39058555  0.29356713  0.04029428    -0.39100
O591        O  0.99397576  0.24352784  0.09306642    -0.39800
O592        O  0.50033738  0.26590334  0.08775142    -0.39800
C593        C  0.05612210  0.25273948  0.44692752    -0.12100
C594        C  0.08548142  0.25596692  0.44544578     0.04900
C595        C  0.09066706  0.23736571  0.42722336    -0.07400
C596        C  0.06663963  0.21572732  0.41184833    -0.08200
C597        C  0.03726691  0.21201443  0.41407808    -0.02700
C598        C  0.03208882  0.23088043  0.43168639     0.04100
N599        N  0.00225680  0.22677968  0.43591768     0.66600
H600        H  0.05129159  0.26634959  0.46092940     0.15500
H601        H  0.07100125  0.20156469  0.39811201     0.15200
N602        N  0.12001052  0.23990616  0.42399536     0.74300
O603        O  0.98554682  0.20883354  0.45439908    -0.39100
O604        O  0.50132996  0.25444496  0.41697862    -0.39100
O605        O  0.12571841  0.22133138  0.43611332    -0.39800
O606        O  0.13683351  0.25530262  0.40431357    -0.39800
C607        C  0.07379303  0.22908319  0.05087544    -0.12100
C608        C  0.08531764  0.25977837  0.05595043     0.04900
C609        C  0.07541485  0.26848367  0.07967549    -0.07400
C610        C  0.05559262  0.24643573  0.09848090    -0.08200
C611        C  0.04487920  0.21564732  0.09366168    -0.02700
C612        C  0.05352688  0.20718342  0.06903449     0.04100
N613        N  0.04085735  0.17636140  0.06137523     0.66600
H614        H  0.08011597  0.22186470  0.03223192     0.15500
H615        H  0.04918028  0.25344166  0.11719045     0.15200
N616        N  0.08620390  0.29951520  0.08547116     0.74300
O617        O  0.01624516  0.16407787  0.04822832    -0.39100
O618        O  0.05747192  0.16422430  0.06154110    -0.39100
O619        O  0.07053983  0.31160316  0.07863362    -0.39800
O620        O  0.11299479  0.31571362  0.09386657    -0.39800
C621        C  0.19343352  0.43263903  0.43985877    -0.12100
C622        C  0.16825169  0.40352763  0.43974415     0.04900
C623        C  0.14507666  0.39680168  0.42040428    -0.07400
C624        C  0.14616768  0.41953648  0.40347556    -0.08200
C625        C  0.17055382  0.44897366  0.40474637    -0.02700
C626        C  0.19486417  0.45522239  0.42255640     0.04100
N627        N  0.22036203  0.48467846  0.42472552     0.66600
H628        H  0.21170408  0.43845313  0.45432844     0.15500
H629        H  0.12784825  0.41408928  0.38913048     0.15200
N630        N  0.12123852  0.36677675  0.41653143     0.74300
O631        O  0.21811454  0.50391046  0.43932548    -0.39100
O632        O  0.24641212  0.48861954  0.41866749    -0.39100
O633        O  0.09465731  0.35940888  0.42450617    -0.39800
O634        O  0.12530616  0.35027056  0.39973080    -0.39800
C635        C  0.25056317  0.34907560  0.42230233    -0.12100
C636        C  0.23497341  0.32355120  0.43918628     0.04900
C637        C  0.23962124  0.29863822  0.43467705    -0.07400
C638        C  0.26086583  0.30061138  0.41493375    -0.08200
C639        C  0.27801561  0.32708505  0.39968444    -0.02700
C640        C  0.27181337  0.35105402  0.40275530     0.04100
N641        N  0.28643826  0.37743013  0.38590469     0.66600
H642        H  0.24661837  0.36802986  0.42444209     0.15500
H643        H  0.26519851  0.28190234  0.41270573     0.15200
N644        N  0.22453259  0.27186979  0.45093769     0.74300
O645        O  0.27603659  0.37710936  0.36230314    -0.39100
O646        O  0.30370484  0.40237256  0.39692371    -0.39100
O647        O  0.20390542  0.24819542  0.44025146    -0.39800
O648        O  0.23644658  0.27008489  0.47311432    -0.39800
C649        C  0.18826223  0.41669222  0.07870954    -0.12100
C650        C  0.16789389  0.40880652  0.05668185     0.04900
C651        C  0.14926590  0.42225387  0.05480048    -0.07400
C652        C  0.15112485  0.44270731  0.07472860    -0.08200
C653        C  0.17078154  0.45000480  0.09732750    -0.02700
C654        C  0.18950824  0.43665250  0.09915939     0.04100
N655        N  0.20841010  0.44131592  0.12236452     0.66600
H656        H  0.20254151  0.40638666  0.08069508     0.15500
H657        H  0.13670979  0.45282651  0.07243812     0.15200
N658        N  0.12860791  0.41588501  0.03256369     0.74300
O659        O  0.19659481  0.42645303  0.14404233    -0.39100
O660        O  0.23664963  0.45260905  0.11863237    -0.39100
O661        O  0.10055380  0.39883536  0.03663326    -0.39800
O662        O  0.13734559  0.43217590  0.01126737    -0.39800
C663        C  0.26870888  0.34585534  0.04588071    -0.12100
C664        C  0.23839880  0.32671216  0.05336605     0.04900
C665        C  0.23214968  0.30825233  0.07683504    -0.07400
C666        C  0.25630385  0.31007698  0.09263209    -0.08200
C667        C  0.28674530  0.33005711  0.08538584    -0.02700
C668        C  0.29267489  0.34759970  0.06130564     0.04100
N669        N  0.32282142  0.36655330  0.05132077     0.66600
H670        H  0.27404694  0.35931414  0.02729991     0.15500
H671        H  0.25116632  0.29658661  0.11115660     0.15200
N672        N  0.20167612  0.28913347  0.08593749     0.74300
O673        O  0.33742327  0.35460512  0.04124269    -0.39100
O674        O  0.33085411  0.39351373  0.04531624    -0.39100
O675        O  0.19020481  0.26101993  0.08391065    -0.39800
O676        O  0.18897273  0.29978410  0.10112268    -0.39800
Fe677      Fe  0.20404196  0.36513984  0.50071564     1.65800
Fe678      Fe  0.12545182  0.33448996  0.99667114     1.73200
Fe679      Fe  0.16184802  0.29275265  0.99740597     1.54400
O680        O  0.19837350  0.30648405  0.97042637    -0.81500
O681        O  0.11046768  0.30547658  0.53714087    -0.79800
O682        O  0.21606519  0.35528538  0.96318568    -0.84000
O683        O  0.22254048  0.34740324  0.52746236    -0.78900
O684        O  0.13386402  0.27822743  0.96378498    -0.80700
O685        O  0.14595677  0.37054435  0.52706419    -0.83400
C686        C  0.21498862  0.32285650  0.54001495     0.97400
C687        C  0.21504047  0.33059572  0.95719946     1.04800
O688        O  0.16297860  0.33189552  0.99732929    -1.12400
O689        O  0.13928769  0.36298679  0.96260166    -0.74800
O690        O  0.18824029  0.39185367  0.97150465    -0.78300
O691        O  0.19021381  0.29902068  0.53546112    -0.79000
C692        C  0.16461588  0.38645802  0.95812623     0.96300
O693        O  0.19467832  0.38468557  0.53378178    -0.77000
O694        O  0.10418216  0.29866587  0.97019468    -0.82200
C695        C  0.10879361  0.28006616  0.54131101     0.98900
C696        C  0.11051134  0.28036171  0.95806034     1.04800
O697        O  0.12531076  0.27170308  0.52847302    -0.77800
C698        C  0.17137231  0.38742036  0.53834146     1.03100
Fe699      Fe  0.37307558  0.16778975  0.00130101     1.65800
Fe700      Fe  0.29527484  0.13126591  0.50299489     1.73200
Fe701      Fe  0.33682875  0.20692556  0.49980686     1.54400
O702        O  0.36694843  0.22237403  0.53197329    -0.81500
O703        O  0.27434336  0.14844877  0.97596413    -0.79800
O704        O  0.39644881  0.20249341  0.52248221    -0.84000
O705        O  0.38961599  0.19536897  0.96697646    -0.78900
O706        O  0.30195032  0.19470624  0.52798100    -0.80700
O707        O  0.30810742  0.11637947  0.96594325    -0.83400
C708        C  0.38903677  0.21944641  0.96148407     0.97400
C709        C  0.39124972  0.22117239  0.53528766     1.04800
O710        O  0.33475643  0.16767415  0.50031001    -1.12400
O711        O  0.31093267  0.10960253  0.52836044    -0.74800
O712        O  0.36048339  0.13894072  0.53443096    -0.78300
O713        O  0.37154604  0.22688457  0.97414129    -0.79000
C714        C  0.33542303  0.11588252  0.54066322     0.96300
O715        O  0.35632751  0.13044533  0.97570634    -0.77000
O716        O  0.28339002  0.14623933  0.53760316    -0.82200
C717        C  0.28146590  0.17323011  0.96402906     0.98900
C718        C  0.28506487  0.17144839  0.54217170     1.04800
O719        O  0.30663258  0.19671427  0.96796465    -0.77800
C720        C  0.33187664  0.11406525  0.96269652     1.03100
C721        C  0.47666582  0.49829407  0.63059935     0.02400
C722        C  0.50140354  0.02853060  0.63851887     0.02400
C723        C  0.03191686  0.02553566  0.62633860     0.02400
C724        C  0.02986799  0.49892259  0.62742521     0.02400
C725        C  0.50439835  0.47003461  0.62681636     0.02400
C726        C  0.47656878  0.47030988  0.63037273     0.02400
C727        C  0.31222235  0.47949015  0.63824224     0.80400
N728        N  0.33880959  0.47902703  0.63756060    -0.77900
C729        C  0.36296410  0.50009639  0.62334505     0.82800
N730        N  0.35706078  0.02514610  0.61760926    -0.77900
C731        C  0.33036426  0.02536326  0.61592458     0.82900
N732        N  0.30972826  0.50155779  0.62445960    -0.79600
C733        C  0.19799436  0.01916961  0.64462694     0.80400
N734        N  0.17107306  0.01932585  0.64470105    -0.77900
C735        C  0.14221480  0.49461768  0.63138052     0.82800
N736        N  0.14663601  0.47600081  0.61470935    -0.77900
C737        C  0.17382606  0.47662981  0.61348882     0.82900
N738        N  0.19740375  0.49696213  0.62909554    -0.79600
C739        C  0.19301095  0.17137170  0.61166816     0.80400
N740        N  0.19463206  0.19438777  0.62688776    -0.77900
C741        C  0.17011605  0.19037838  0.64188853     0.82800
N742        N  0.14414113  0.16342369  0.64144893    -0.77900
C743        C  0.14246930  0.14048248  0.62618799     0.82900
N744        N  0.16703526  0.14455963  0.61151817    -0.79600
C745        C  0.48693007  0.17413964  0.65036978     0.80400
N746        N  0.50721981  0.19683431  0.63371251    -0.77900
C747        C  0.02088579  0.18702016  0.61289937     0.82800
N748        N  0.02318308  0.16169150  0.61528932    -0.77900
C749        C  0.51189205  0.14628071  0.64107277     0.82900
N750        N  0.48973602  0.14920331  0.65393633    -0.79600
C751        C  0.31086232  0.32968338  0.60979255     0.80400
N752        N  0.30686255  0.30685737  0.62693819    -0.77900
C753        C  0.32939482  0.31030020  0.64429914     0.82800
N754        N  0.35573211  0.33681816  0.64464205    -0.77900
C755        C  0.36021337  0.35983820  0.62773260     0.82900
N756        N  0.33757914  0.35607978  0.61035900    -0.79600
C757        C  0.03477722  0.33492983  0.62279796     0.80400
N758        N  0.03380042  0.36094659  0.62540959    -0.77900
C759        C  0.51394707  0.36252439  0.61280129     0.82800
N760        N  0.49184437  0.33930450  0.59887273    -0.77900
C761        C  0.49177301  0.31278761  0.59648442     0.82900
N762        N  0.51441386  0.30960326  0.60834289    -0.79600
Fe763      Fe  0.33835072  0.13154736  0.75332714     1.65800
Fe764      Fe  0.29247912  0.16273012  0.75246863     1.73200
Fe765      Fe  0.36886899  0.20733836  0.75583508     1.54400
O766        O  0.39095970  0.19334799  0.78305103    -0.81500
O767        O  0.30322401  0.19265241  0.71975508    -0.79800
O768        O  0.36248953  0.14402063  0.78942200    -0.84000
O769        O  0.37763504  0.15249494  0.73020011    -0.78900
O770        O  0.35138191  0.21885602  0.78910202    -0.80700
O771        O  0.27756103  0.12732636  0.72507335    -0.83400
C772        C  0.39340429  0.17728851  0.71764557     0.97400
C773        C  0.38466927  0.16924647  0.79595882     1.04800
O774        O  0.33320214  0.16729820  0.75364247    -1.12400
O775        O  0.27799659  0.13265507  0.78527348    -0.74800
O776        O  0.29970911  0.10476959  0.77644850    -0.78300
O777        O  0.39025159  0.20008883  0.72237861    -0.79000
C778        C  0.28029429  0.10913797  0.78927645     0.96300
O779        O  0.31429498  0.11585455  0.71726048    -0.77000
O780        O  0.30212300  0.19771594  0.77970278    -0.82200
C781        C  0.32621036  0.21870004  0.71698985     0.98900
C782        C  0.32541713  0.21667725  0.79273488     1.04800
O783        O  0.35089180  0.22672890  0.72979488    -0.77800
C784        C  0.28814777  0.11254480  0.71245920     1.03100
Fe785      Fe  0.12821727  0.29582512  0.74841646     1.65800
Fe786      Fe  0.20544882  0.33607892  0.74754688     1.73200
Fe787      Fe  0.16381183  0.37195884  0.74480332     1.54400
O788        O  0.13672702  0.35647997  0.71045720    -0.81500
O789        O  0.22385877  0.37291511  0.77304836    -0.79800
O790        O  0.10605668  0.30813004  0.71976569    -0.84000
O791        O  0.11071451  0.30876191  0.78057518    -0.78900
O792        O  0.20101374  0.39318812  0.71892538    -0.80700
O793        O  0.19490810  0.30860590  0.78209549    -0.83400
C794        C  0.10909039  0.33259472  0.78362468     0.97400
C795        C  0.11369388  0.33129261  0.70499450     1.04800
O796        O  0.16587054  0.33461334  0.74716416    -1.12400
O797        O  0.19149714  0.29967642  0.72184057    -0.74800
O798        O  0.14154230  0.27876388  0.71630450    -0.78300
O799        O  0.12595461  0.35652073  0.77024379    -0.79000
C800        C  0.16697396  0.28089522  0.71030305     0.96300
O801        O  0.14544912  0.27801440  0.77669889    -0.77000
O802        O  0.22121962  0.36350298  0.71297273    -0.82200
C803        C  0.21649257  0.39096260  0.78431137     0.98900
C804        C  0.21983954  0.38707266  0.70720422     1.04800
O805        O  0.19177284  0.39078017  0.77866229    -0.77800
C806        C  0.17046961  0.28499288  0.78847977     1.03100
C807        C  0.02780130  0.00199487  0.86282846     0.02400
C808        C  0.99604360  0.47149373  0.86000335     0.02400
C809        C  0.47230900  0.47509954  0.85335661     0.02400
C810        C  0.47386876  0.00114807  0.86676988     0.02400
C811        C  0.00148070  0.03158443  0.86060267     0.02400
C812        C  0.02893020  0.03025303  0.86142930     0.02400
C813        C  0.19090270  0.01879811  0.86249444     0.80400
N814        N  0.16374238  0.01799451  0.86159038    -0.77900
C815        C  0.13921134  0.99638458  0.87484165     0.82800
N816        N  0.14237434  0.48146171  0.88885499    -0.77900
C817        C  0.16971441  0.48255367  0.89065801     0.82900
N818        N  0.19340738  0.99685582  0.87660021    -0.79600
C819        C  0.31173246  0.48396495  0.85079810     0.80400
N820        N  0.30760011  0.00517931  0.87184059    -0.77900
C821        C  0.33039286  0.02388199  0.88910162     0.82800
N822        N  0.35672527  0.02266916  0.88964044    -0.77900
C823        C  0.36064080  0.00327111  0.87366271     0.82900
N824        N  0.34014356  0.48760447  0.84912814    -0.79600
C825        C  0.47319086  0.16870706  0.86944534     0.80400
N826        N  0.47344747  0.14224544  0.86853805    -0.77900
C827        C  0.49504725  0.13866973  0.88179022     0.82800
N828        N  0.02003487  0.16614383  0.88524702    -0.77900
C829        C  0.01978964  0.19255040  0.88705199     0.82900
N830        N  0.49466401  0.19194313  0.88411911    -0.79600
C831        C  0.19182293  0.17216469  0.88965217     0.80400
N832        N  0.19353937  0.19572258  0.87463525    -0.77900
C833        C  0.16999165  0.19141228  0.85793365     0.82800
N834        N  0.14556645  0.16369176  0.85649524    -0.77900
C835        C  0.14348032  0.14029899  0.87113351     0.82900
N836        N  0.16662563  0.14463206  0.88784343    -0.79600
C837        C  0.01711817  0.32987969  0.85771553     0.80400
N838        N  0.01299334  0.35415068  0.85548713    -0.77900
C839        C  0.99219586  0.35682641  0.87086428     0.82800
N840        N  0.47491852  0.33484050  0.88172145    -0.77900
C841        C  0.47537721  0.30858658  0.88500209     0.82900
N842        N  0.99941367  0.30743620  0.87579297    -0.79600
C843        C  0.30423710  0.33852063  0.87776332     0.80400
N844        N  0.30288791  0.31351421  0.86647963    -0.77900
C845        C  0.32753114  0.31479452  0.85385158     0.82800
N846        N  0.35361235  0.34145057  0.85220631    -0.77900
C847        C  0.35538753  0.36669880  0.86323443     0.82900
N848        N  0.33066653  0.36511633  0.87615851    -0.79600
C849        C  0.48874414  0.06714303  0.85195562    -0.12100
C850        C  0.00169412  0.06069641  0.86385862     0.04900
C851        C  0.00814565  0.07612069  0.88926066    -0.07400
C852        C  0.00749832  0.10335875  0.89062629    -0.08200
C853        C  0.49670755  0.11053297  0.87867175    -0.02700
C854        C  0.48680866  0.09341023  0.85443806     0.04100
N855        N  0.47660376  0.10341223  0.83136107     0.66600
H856        H  0.48179507  0.05484306  0.83291506     0.15500
H857        H  0.01205353  0.11516536  0.90998215     0.15200
N858        N  0.01491034  0.06455771  0.91376710     0.74300
O859        O  0.49538675  0.12557317  0.81721691    -0.39100
O860        O  0.44866316  0.09096428  0.82581996    -0.39100
O861        O  0.03064972  0.08229178  0.93255003    -0.39800
O862        O  0.00359950  0.03665315  0.91776119    -0.39800
C863        C  0.07531697  0.06433214  0.88795623    -0.12100
C864        C  0.05878808  0.05825440  0.86335942     0.04900
C865        C  0.07083540  0.07904410  0.84140339    -0.07400
C866        C  0.09919972  0.10456717  0.84421633    -0.08200
C867        C  0.11551363  0.11094664  0.86881394    -0.02700
C868        C  0.10333495  0.09054554  0.89093284     0.04100
N869        N  0.11805155  0.09706491  0.91700650     0.66600
H870        H  0.06588854  0.04906304  0.90527024     0.15500
H871        H  0.10835838  0.11985557  0.82693878     0.15200
N872        N  0.05429186  0.07570035  0.81660299     0.74300
O873        O  0.11680240  0.11622150  0.93251534    -0.39100
O874        O  0.13483370  0.08604407  0.92329367    -0.39100
O875        O  0.05040369  0.09714424  0.80861142    -0.39800
O876        O  0.05079948  0.05571353  0.79958286    -0.39800
C877        C  0.40129641  0.40081270  0.83631406    -0.12100
C878        C  0.38413357  0.39548428  0.86048628     0.04900
C879        C  0.39545995  0.41712727  0.88149983    -0.07400
C880        C  0.42383857  0.44288011  0.87828739    -0.08200
C881        C  0.44140214  0.44797488  0.85437955    -0.02700
C882        C  0.42953738  0.42671527  0.83290255     0.04100
N883        N  0.44543565  0.43057836  0.80749285     0.66600
H884        H  0.39266593  0.38468075  0.81975272     0.15500
H885        H  0.43281337  0.45846973  0.89519523     0.15200
N886        N  0.37949373  0.41262296  0.90690802     0.74300
O887        O  0.45356801  0.41157652  0.80125468    -0.39100
O888        O  0.44089320  0.44436422  0.78817283    -0.39100
O889        O  0.38395784  0.39860660  0.92613146    -0.39800
O890        O  0.36788339  0.42899486  0.91243255    -0.39800
C891        C  0.43859615  0.51282235  0.88119419    -0.12100
C892        C  0.44473848  0.00179721  0.86811933     0.04900
C893        C  0.42567794  0.99541562  0.84515996    -0.07400
C894        C  0.39857485  0.99618358  0.84776578    -0.08200
C895        C  0.38972668  0.00309476  0.87280645    -0.02700
C896        C  0.41195465  0.51460782  0.88461809     0.04100
N897        N  0.40342417  0.51887611  0.91156331     0.66600
H898        H  0.45186732  0.51432911  0.89912776     0.15500
H899        H  0.38465998  0.99196530  0.82972959     0.15200
N900        N  0.43328388  0.98835723  0.81892892     0.74300
O901        O  0.38743514  0.49634115  0.92660016    -0.39100
O902        O  0.41676317  0.54469013  0.92211903    -0.39100
O903        O  0.45233772  0.00941667  0.80393680    -0.39800
O904        O  0.41455832  0.96404858  0.80770871    -0.39800
C905        C  0.10223070  0.00245752  0.84653381    -0.12100
C906        C  0.10996052  0.99601789  0.87224824     0.04900
C907        C  0.09508200  0.50582618  0.89319497    -0.07400
C908        C  0.06712014  0.50449192  0.88884213    -0.08200
C909        C  0.05640568  0.00003627  0.86550622    -0.02700
C910        C  0.07592116  0.00462645  0.84286405     0.04100
N911        N  0.07036197  0.01254429  0.81613546     0.66600
H912        H  0.11694984  0.00602758  0.82899228     0.15500
H913        H  0.05624787  0.50932547  0.90576365     0.15200
N914        N  0.10882460  0.51350486  0.91969234     0.74300
O915        O  0.04996682  0.99268817  0.80143145    -0.39100
O916        O  0.09131879  0.03551021  0.80447531    -0.39100
O917        O  0.13050789  0.53962472  0.92381799    -0.39800
O918        O  0.10341518  0.49294334  0.93693974    -0.39800
C919        C  0.98813904  0.42322902  0.84117535    -0.12100
C920        C  0.99433857  0.44163086  0.86416543     0.04900
C921        C  0.48765297  0.42469309  0.88363884    -0.07400
C922        C  0.48630684  0.39659597  0.88441146    -0.08200
C923        C  0.98990644  0.38439086  0.86862237    -0.02700
C924        C  0.98639471  0.39512896  0.84299112     0.04100
N925        N  0.98110720  0.37786548  0.81853996     0.66600
H926        H  0.98597022  0.43134941  0.82134566     0.15500
H927        H  0.48020061  0.38412198  0.90355725     0.15200
N928        N  0.48176322  0.43585903  0.90851812     0.74300
O929        O  0.95419200  0.36178335  0.81041340    -0.39100
O930        O  0.00273572  0.38473270  0.80183546    -0.39100
O931        O  0.50283527  0.44785926  0.92584208    -0.39800
O932        O  0.45475642  0.42403545  0.91719103    -0.39800
C933        C  0.14560315  0.23401002  0.80867523    -0.12100
C934        C  0.17059831  0.26306503  0.80881350     0.04900
C935        C  0.19504605  0.26896661  0.82658187    -0.07400
C936        C  0.19450284  0.24558885  0.84255825    -0.08200
C937        C  0.16978410  0.21618305  0.84151672    -0.02700
C938        C  0.14477155  0.21088638  0.82449984     0.04100
N939        N  0.11822620  0.18205295  0.82219040     0.66600
H940        H  0.12638866  0.22857777  0.79546798     0.15500
H941        H  0.21357511  0.25058157  0.85580029     0.15200
N942        N  0.22013307  0.29857482  0.82941192     0.74300
O943        O  0.09537555  0.17599775  0.83708352    -0.39100
O944        O  0.11481970  0.16666069  0.80091897    -0.39100
O945        O  0.21957431  0.31507450  0.84841100    -0.39800
O946        O  0.24513006  0.30510441  0.81801213    -0.39800
C947        C  0.07699238  0.31292181  0.82598257    -0.12100
C948        C  0.08608304  0.33213804  0.80294526     0.04900
C949        C  0.07204596  0.34976176  0.79817217    -0.07400
C950        C  0.04929049  0.34754684  0.81588607    -0.08200
C951        C  0.04039908  0.32890108  0.83936312    -0.02700
C952        C  0.05489183  0.31162730  0.84451114     0.04100
N953        N  0.04883905  0.29387688  0.86887789     0.66600
H954        H  0.08783261  0.29950400  0.83015058     0.15500
H955        H  0.03867720  0.36097985  0.81105911     0.15200
N956        N  0.08008635  0.36973686  0.77513661     0.74300
O957        O  0.03957101  0.26612233  0.86666331    -0.39100
O958        O  0.06086859  0.30673059  0.89111246    -0.39100
O959        O  0.06358768  0.36150722  0.75403496    -0.39800
O960        O  0.09848462  0.39730127  0.77847532    -0.39800
C961        C  0.25762724  0.45663066  0.83446866    -0.12100
C962        C  0.28686231  0.45953358  0.83462465     0.04900
C963        C  0.29172826  0.43858661  0.81928155    -0.07400
C964        C  0.26805414  0.41618310  0.80437222    -0.08200
C965        C  0.23908196  0.41370832  0.80342188    -0.02700
C966        C  0.23388561  0.43414163  0.81906619     0.04100
N967        N  0.20478753  0.43246301  0.81980633     0.66600
H968        H  0.25309813  0.47207068  0.84615265     0.15500
H969        H  0.27303998  0.40104280  0.79270165     0.15200
N970        N  0.32067594  0.43977497  0.81780637     0.74300
O971        O  0.18668487  0.41840289  0.83924543    -0.39100
O972        O  0.20046178  0.45077198  0.80562581    -0.39100
O973        O  0.32521689  0.42140655  0.83167027    -0.39800
O974        O  0.33845637  0.45375079  0.79815607    -0.39800
C975        C  0.42001564  0.14774366  0.85464554    -0.12100
C976        C  0.44988007  0.17164122  0.85375397     0.04900
C977        C  0.45693189  0.19629666  0.83628043    -0.07400
C978        C  0.43478520  0.19558478  0.81871678    -0.08200
C979        C  0.40539203  0.17075614  0.81816877    -0.02700
C980        C  0.39768690  0.14730705  0.83743304     0.04100
N981        N  0.36721228  0.12351651  0.84063843     0.66600
H982        H  0.41399090  0.12913520  0.86872929     0.15500
H983        H  0.44127143  0.21410977  0.80444905     0.15200
N984        N  0.48673474  0.22157797  0.83476838     0.74300
O985        O  0.36010207  0.09780473  0.83150207    -0.39100
O986        O  0.35048866  0.12610238  0.85854653    -0.39100
O987        O  0.50638930  0.22015217  0.81967841    -0.39800
O988        O  0.49012233  0.24701870  0.84094461    -0.39800
C989        C  0.24143055  0.09316244  0.82660633    -0.12100
C990        C  0.25933795  0.08596691  0.80940865     0.04900
C991        C  0.25599913  0.05666638  0.81151852    -0.07400
C992        C  0.23468268  0.03552714  0.82995114    -0.08200
C993        C  0.21638321  0.04272821  0.84649587    -0.02700
C994        C  0.22011712  0.07204537  0.84478707     0.04100
N995        N  0.20212246  0.08077781  0.86113552     0.66600
H996        H  0.24356854  0.11534388  0.82576731     0.15500
H997        H  0.23170527  0.01299970  0.83061222     0.15200
N998        N  0.27311665  0.04741240  0.79455690     0.74300
O999        O  0.21229233  0.09360331  0.88381981    -0.39100
O1000       O  0.18017333  0.08217546  0.85024134    -0.39100
O1001       O  0.29459111  0.04479640  0.80496094    -0.39800
O1002       O  0.26214967  0.03482847  0.77194833    -0.39800
C1003       C  0.29998120  0.26880754  0.82558193    -0.12100
C1004       C  0.32567128  0.28766184  0.84103881     0.04900
C1005       C  0.34954701  0.28086048  0.84301736    -0.07400
C1006       C  0.34811198  0.25660724  0.82839098    -0.08200
C1007       C  0.32314506  0.23855132  0.81159103    -0.02700
C1008       C  0.29837623  0.24438643  0.81102423     0.04100
N1009       N  0.27191179  0.22668282  0.79496096     0.66600
H1010       H  0.28130571  0.27355072  0.82412468     0.15500
H1011       H  0.36710573  0.25235198  0.82980509     0.15200
N1012       N  0.37508891  0.29783942  0.86033989     0.74300
O1013       O  0.24848547  0.20608205  0.80646164    -0.39100
O1014       O  0.26959419  0.23600747  0.77153864    -0.39100
O1015       O  0.37497458  0.28852560  0.88441333    -0.39800
O1016       O  0.39985893  0.31738094  0.84981008    -0.39800
C1017       C  0.10554461  0.35420421  0.66294355    -0.12100
C1018       C  0.09491711  0.32930897  0.68076432     0.04900
C1019       C  0.06633522  0.30381212  0.67526268    -0.07400
C1020       C  0.04803960  0.30508848  0.65434161    -0.08200
C1021       C  0.05757856  0.33124290  0.63864112    -0.02700
C1022       C  0.08730982  0.35527793  0.64196125     0.04100
N1023       N  0.09950609  0.38077254  0.62396294     0.66600
H1024       H  0.12795797  0.37339360  0.66558249     0.15500
H1025       H  0.02542073  0.28620296  0.65166150     0.15200
N1026       N  0.05465883  0.27696257  0.69139663     0.74300
O1027       O  0.10291765  0.40549637  0.63264280    -0.39100
O1028       O  0.11387153  0.38058972  0.60275284    -0.39100
O1029       O  0.03580948  0.27263450  0.71036948    -0.39800
O1030       O  0.05655452  0.25487571  0.68210885    -0.39800
C1031       C  0.31035752  0.23331602  0.67321665    -0.12100
C1032       C  0.32448882  0.24135585  0.69898376     0.04900
C1033       C  0.33795052  0.27172085  0.70721026    -0.07400
C1034       C  0.33870259  0.29348815  0.68924736    -0.08200
C1035       C  0.32590294  0.28581248  0.66302577    -0.02700
C1036       C  0.31127128  0.25533622  0.65512326     0.04100
N1037       N  0.29830798  0.24656385  0.62845412     0.66600
H1038       H  0.29975532  0.21012144  0.66663692     0.15500
H1039       H  0.34934462  0.31665131  0.69595823     0.15200
N1040       N  0.35012052  0.28074567  0.73416771     0.74300
O1041       O  0.31506547  0.25502182  0.60734294    -0.39100
O1042       O  0.26986008  0.23290487  0.62585812    -0.39100
O1043       O  0.37853981  0.29485000  0.73735138    -0.39800
O1044       O  0.33309862  0.28077569  0.75321636    -0.39800
C1045       C  0.41279705  0.15069411  0.68859298    -0.12100
C1046       C  0.41597579  0.17831024  0.69713903     0.04900
C1047       C  0.44119818  0.20499635  0.68717876    -0.07400
C1048       C  0.46348719  0.20336871  0.67081292    -0.08200
C1049       C  0.46123786  0.17551972  0.66422563    -0.02700
C1050       C  0.43483279  0.14896169  0.67267213     0.04100
N1051       N  0.42980745  0.11969771  0.66566186     0.66600
H1052       H  0.39317980  0.12978372  0.69485968     0.15500
H1053       H  0.48326219  0.22401630  0.66431136     0.15200
N1054       N  0.44533229  0.23387287  0.69429150     0.74300
O1055       O  0.43172703  0.10335326  0.68417346    -0.39100
O1056       O  0.41542785  0.10752725  0.64406086    -0.39100
O1057       O  0.46172208  0.24751036  0.71457717    -0.39800
O1058       O  0.43897557  0.24834248  0.67691422    -0.39800
C1059       C  0.19442449  0.25655847  0.68982474    -0.12100
C1060       C  0.16833374  0.25980372  0.69021065     0.04900
C1061       C  0.14380374  0.24131949  0.67292088    -0.07400
C1062       C  0.14522432  0.21918216  0.65715092    -0.08200
C1063       C  0.17079922  0.21517966  0.65783412    -0.02700
C1064       C  0.19583533  0.23449089  0.67403989     0.04100
N1065       N  0.22209694  0.23091201  0.67637684     0.66600
H1066       H  0.21354436  0.27029788  0.70290033     0.15500
H1067       H  0.12609223  0.20495387  0.64426126     0.15200
N1068       N  0.11731620  0.24457966  0.67092116     0.74300
O1069       O  0.24742882  0.25228561  0.66879002    -0.39100
O1070       O  0.22158108  0.21184105  0.69326509    -0.39100
O1071       O  0.11554099  0.26019099  0.65158862    -0.39800
O1072       O  0.09335974  0.22592415  0.68322602    -0.39800
C1073       C  0.25255157  0.05805411  0.65259670    -0.12100
C1074       C  0.22266613  0.04057659  0.66275991     0.04900
C1075       C  0.21588469  0.04620379  0.68955253    -0.07400
C1076       C  0.23773470  0.07018697  0.70449891    -0.08200
C1077       C  0.26713773  0.08815485  0.69429107    -0.02700
C1078       C  0.27507060  0.08123884  0.66853180     0.04100
N1079       N  0.30544835  0.09768092  0.65814104     0.66600
H1080       H  0.25830553  0.05405913  0.63219884     0.15500
H1081       H  0.23191307  0.07412734  0.72495266     0.15200
N1082       N  0.18742852  0.02694638  0.70267843     0.74300
O1083       O  0.32300750  0.08673182  0.66042119    -0.39100
O1084       O  0.31280429  0.11994291  0.64245624    -0.39100
O1085       O  0.18079276  0.00023823  0.70821860    -0.39800
O1086       O  0.17397998  0.03853303  0.71555414    -0.39800
C1087       C  0.24981452  0.43992579  0.69139484    -0.12100
C1088       C  0.24199622  0.40966365  0.68759596     0.04900
C1089       C  0.25677174  0.40260226  0.66646007    -0.07400
C1090       C  0.27892192  0.42569143  0.65008973    -0.08200
C1091       C  0.28680947  0.45586811  0.65428420    -0.02700
C1092       C  0.27214909  0.46287926  0.67528068     0.04100
N1093       N  0.28092224  0.49329589  0.68169629     0.66600
H1094       H  0.23939504  0.44611122  0.70781161     0.15500
H1095       H  0.29024626  0.42002161  0.63409587     0.15200
N1096       N  0.24940787  0.37228995  0.66096649     0.74300
O1097       O  0.26345603  0.50344319  0.67528675    -0.39100
O1098       O  0.28654722  0.00868849  0.70355966    -0.39100
O1099       O  0.23150727  0.35847787  0.64157664    -0.39800
O1100       O  0.26643718  0.36263696  0.67009966    -0.39800
C1101       C  0.07784273  0.06558662  0.60325764    -0.12100
C1102       C  0.06101957  0.05462690  0.62757508     0.04900
C1103       C  0.07212286  0.07155414  0.65199306    -0.07400
C1104       C  0.09842597  0.09971383  0.65090028    -0.08200
C1105       C  0.11451688  0.11102726  0.62622641    -0.02700
C1106       C  0.10419340  0.09351264  0.60227677     0.04100
N1107       N  0.11915878  0.10443683  0.57641749     0.66600
H1108       H  0.06993406  0.05272536  0.58463880     0.15500
H1109       H  0.10678118  0.11245853  0.66965258     0.15200
N1110       N  0.05837213  0.06019081  0.67829148     0.74300
O1111       O  0.13494814  0.09371960  0.56645418    -0.39100
O1112       O  0.11134296  0.11952942  0.56119294    -0.39100
O1113       O  0.06884838  0.04696706  0.69293854    -0.39800
O1114       O  0.04555432  0.07286574  0.69036152    -0.39800
C1115       C  0.99719758  0.06382066  0.65244746    -0.12100
C1116       C  0.50355098  0.05860943  0.63845029     0.04900
C1117       C  0.50956897  0.07609412  0.61430154    -0.07400
C1118       C  0.51350912  0.10512656  0.61600436    -0.08200
C1119       C  0.51111905  0.11704602  0.64122067    -0.02700
C1120       C  0.99855244  0.09176136  0.65470453     0.04100
N1121       N  0.99626791  0.10210834  0.68141368     0.66600
H1122       H  0.99278484  0.05010719  0.67059301     0.15500
H1123       H  0.51728024  0.11796096  0.59728116     0.15200
N1124       N  0.51083074  0.06470257  0.58778789     0.74300
O1125       O  0.97353239  0.08584990  0.69634556    -0.39100
O1126       O  0.02007423  0.12211493  0.69260949    -0.39100
O1127       O  0.53615373  0.07550821  0.57563818    -0.39800
O1128       O  0.48717805  0.05339528  0.57332433    -0.39800
C1129       C  0.07777557  0.00553588  0.64718118    -0.12100
C1130       C  0.05889549  0.49793716  0.62710655     0.04900
C1131       C  0.07238792  0.49403596  0.60308192    -0.07400
C1132       C  0.09933827  0.49260430  0.60518094    -0.08200
C1133       C  0.11313278  0.49490829  0.63070829    -0.02700
C1134       C  0.10631410  0.00775915  0.64925627     0.04100
N1135       N  0.12091291  0.01521244  0.67527404     0.66600
H1136       H  0.06708506  0.00786093  0.66531533     0.15500
H1137       H  0.10978388  0.49007990  0.58661552     0.15200
N1138       N  0.05911778  0.49086503  0.57654566     0.74300
O1139       O  0.12994478  0.04131643  0.68444716    -0.39100
O1140       O  0.11609905  0.99425180  0.69184496    -0.39100
O1141       O  0.05084111  0.46662690  0.56379391    -0.39800
O1142       O  0.06524828  0.51416109  0.56278982    -0.39800
C1143       C  0.51728475  0.43193408  0.64419420    -0.12100
C1144       C  0.50500925  0.44140487  0.62312049     0.04900
C1145       C  0.99008149  0.42450814  0.60045085    -0.07400
C1146       C  0.99351590  0.39899185  0.59790942    -0.08200
C1147       C  0.51196613  0.39016254  0.61663348    -0.02700
C1148       C  0.52131426  0.40695047  0.64108561     0.04100
N1149       N  0.53383063  0.39843058  0.66343772     0.66600
H1150       H  0.52368022  0.44401778  0.66341718     0.15500
H1151       H  0.98494152  0.38536941  0.57965136     0.15200
N1152       N  0.97501825  0.43112022  0.57889750     0.74300
O1153       O  0.56224836  0.41185812  0.66656875    -0.39100
O1154       O  0.51688210  0.38393696  0.68338745    -0.39100
O1155       O  0.99047073  0.45208879  0.56216531    -0.39800
O1156       O  0.94872927  0.41120158  0.57202586    -0.39800
C1157       C  0.42742743  0.43633325  0.60897843    -0.12100
C1158       C  0.44707454  0.44164693  0.63090005     0.04900
C1159       C  0.43821580  0.41965075  0.65194257    -0.07400
C1160       C  0.40987772  0.39338874  0.65040785    -0.08200
C1161       C  0.38976355  0.38847244  0.62854514    -0.02700
C1162       C  0.39906061  0.41070619  0.60781041     0.04100
N1163       N  0.38079930  0.40767057  0.58461791     0.66600
H1164       H  0.43445696  0.45210506  0.59201289     0.15500
H1165       H  0.40351321  0.37692326  0.66675803     0.15200
N1166       N  0.45731588  0.42319220  0.67492381     0.74300
O1167       O  0.36630387  0.42201962  0.58447963    -0.38300
O1168       O  0.38789888  0.40065561  0.56200986    -0.39100
O1169       O  0.46341890  0.40253663  0.68048071    -0.39800
O1170       O  0.46077148  0.44188883  0.69336444    -0.39800
C1171       C  0.39880056  0.00095138  0.66014013    -0.12100
C1172       C  0.39216200  0.50017699  0.62468251     0.04900
C1173       C  0.41071579  0.50547456  0.60138698    -0.07400
C1174       C  0.43808757  0.50488529  0.60391226    -0.08200
C1175       C  0.44761760  0.49945302  0.62938925    -0.02700
C1176       C  0.42667157  0.00152092  0.66286812     0.04100
N1177       N  0.43619228  0.99906335  0.68988933     0.66600
H1178       H  0.38522291  0.99825507  0.67836764     0.15500
H1179       H  0.45112668  0.50686875  0.58564607     0.15200
N1180       N  0.40109878  0.50948887  0.57485445     0.74300
O1181       O  0.45184003  0.02290992  0.70311518    -0.39100
O1182       O  0.41961229  0.97548982  0.70343276    -0.39100
O1183       O  0.41123367  0.53558853  0.56502013    -0.39800
O1184       O  0.37995692  0.48738903  0.56270651    -0.39800
C1185       C  0.31110226  0.08121111  0.92133188    -0.12100
C1186       C  0.33077801  0.09064638  0.94396355     0.04900
C1187       C  0.34812167  0.07631044  0.94920405    -0.07400
C1188       C  0.34627550  0.05397072  0.93162952    -0.08200
C1189       C  0.32775433  0.04532458  0.90820584    -0.02700
C1190       C  0.30957627  0.05891311  0.90342781     0.04100
N1191       N  0.29026636  0.05134991  0.88015082     0.66600
H1192       H  0.29726042  0.09162019  0.91714343     0.15500
H1193       H  0.35978121  0.04338533  0.93649529     0.15200
N1194       N  0.36710427  0.08335605  0.97281861     0.74300
O1195       O  0.26207257  0.03503088  0.88367178    -0.39100
O1196       O  0.29969069  0.06797777  0.85915510    -0.39100
O1197       O  0.35717577  0.06690126  0.99394447    -0.39800
O1198       O  0.39529781  0.10082310  0.97023775    -0.39800
C1199       C  0.30671732  0.06690439  0.56517953    -0.12100
C1200       C  0.33391210  0.09441695  0.56220900     0.04900
C1201       C  0.35882844  0.09957419  0.57886359    -0.07400
C1202       C  0.35639939  0.07706926  0.59685072    -0.08200
C1203       C  0.32965242  0.04921865  0.59898984    -0.02700
C1204       C  0.30451199  0.04436904  0.58301634     0.04100
N1205       N  0.27737904  0.01600772  0.58282870     0.66600
H1206       H  0.28714012  0.06206315  0.55266116     0.15500
H1207       H  0.37609345  0.08116503  0.60875499     0.15200
N1208       N  0.38695736  0.12711293  0.57757251     0.74300
O1209       O  0.25386145  0.01386636  0.59407286    -0.39100
O1210       O  0.27463091  0.99675230  0.56521451    -0.39100
O1211       O  0.39298069  0.14651554  0.59602193    -0.39800
O1212       O  0.40819554  0.12869009  0.56262536    -0.39800
C1213       C  0.26844902  0.19126884  0.92099705    -0.12100
C1214       C  0.25903808  0.17486367  0.94565356     0.04900
C1215       C  0.22796343  0.16016653  0.95276549    -0.07400
C1216       C  0.20674369  0.16030635  0.93445905    -0.08200
C1217       C  0.21586636  0.17578863  0.90924452    -0.02700
C1218       C  0.24718536  0.19195083  0.90286254     0.04100
N1219       N  0.25775422  0.20770148  0.87745299     0.66600
H1220       H  0.29233393  0.20302123  0.91545984     0.15500
H1221       H  0.18290924  0.14841783  0.94014804     0.15200
N1222       N  0.21782749  0.14619606  0.97910732     0.74300
O1223       O  0.26521664  0.23516429  0.87644458    -0.39100
O1224       O  0.26738219  0.19693396  0.85915065    -0.39100
O1225       O  0.22682117  0.16624666  0.50379172    -0.39800
O1226       O  0.20447024  0.11795130  0.98130767    -0.39800
C1227       C  0.41863974  0.27132144  0.94362659    -0.12100
C1228       C  0.41055434  0.24098921  0.94081255     0.04900
C1229       C  0.42391653  0.23281369  0.91920964    -0.07400
C1230       C  0.44507412  0.25504625  0.90136778    -0.08200
C1231       C  0.45346275  0.28553729  0.90458600    -0.02700
C1232       C  0.43966780  0.29339639  0.92608310     0.04100
N1233       N  0.44715402  0.32382894  0.93112837     0.66600
H1234       H  0.40902480  0.27832899  0.96010731     0.15500
H1235       H  0.45459350  0.24827057  0.88466028     0.15200
N1236       N  0.41524762  0.20207591  0.91415603     0.74300
O1237       O  0.42953396  0.33308030  0.92267593    -0.39100
O1238       O  0.98193423  0.33240936  0.96255330    -0.39100
O1239       O  0.39613191  0.18806890  0.89563237    -0.39800
O1240       O  0.43149971  0.19150104  0.92321068    -0.39800
C1241       C  0.25857642  0.19744810  0.56148401    -0.12100
C1242       C  0.26509856  0.17363494  0.56337332     0.04900
C1243       C  0.24966854  0.15095153  0.58337189    -0.07400
C1244       C  0.22719375  0.15160142  0.59967669    -0.08200
C1245       C  0.21940713  0.17425682  0.59638286    -0.02700
C1246       C  0.23549532  0.19759333  0.57733808     0.04100
N1247       N  0.22690888  0.21998343  0.57197952     0.66600
H1248       H  0.26982075  0.21497477  0.54617076     0.15500
H1249       H  0.21513408  0.13375828  0.61457209     0.15200
N1250       N  0.25602005  0.12679623  0.58720694     0.74300
O1251       O  0.24508678  0.24699553  0.57780998    -0.39100
O1252       O  0.20567742  0.21420896  0.55531564    -0.39100
O1253       O  0.23760453  0.10110145  0.57816222    -0.39800
O1254       O  0.27493697  0.12918544  0.60524075    -0.39800
C1255       C  0.43842143  0.28855439  0.58081624    -0.12100
C1256       C  0.46567152  0.28748803  0.58276917     0.04900
C1257       C  0.46707266  0.26296648  0.57098030    -0.07400
C1258       C  0.44207232  0.24106165  0.55677412    -0.08200
C1259       C  0.41532037  0.24291253  0.55368380    -0.02700
C1260       C  0.41351484  0.26679273  0.56650575     0.04100
N1261       N  0.38679018  0.26966713  0.56518258     0.66600
H1262       H  0.43632197  0.30666383  0.59025852     0.15500
H1263       H  0.44417852  0.22294690  0.54736181     0.15200
N1264       N  0.49401313  0.26048780  0.57177116     0.74300
O1265       O  0.36812978  0.25988461  0.58492615    -0.39100
O1266       O  0.38584519  0.28815633  0.54847242    -0.39100
O1267       O  0.98427511  0.23846105  0.60205713    -0.39800
O1268       O  0.51084734  0.26798895  0.55070463    -0.39800
C1269       C  0.05893526  0.25553066  0.93806776    -0.12100
C1270       C  0.08866930  0.25979363  0.93758745     0.04900
C1271       C  0.09568212  0.24259291  0.91917029    -0.07400
C1272       C  0.07299262  0.22147594  0.90232175    -0.08200
C1273       C  0.04319453  0.21671819  0.90361046    -0.02700
C1274       C  0.03619354  0.23390221  0.92170339     0.04100
N1275       N  0.00569971  0.22806803  0.92539964     0.66600
H1276       H  0.05270303  0.26789695  0.95232504     0.15500
H1277       H  0.07862588  0.20833264  0.88843060     0.15200
N1278       N  0.12534935  0.24562023  0.91758853     0.74300
O1279       O  0.98871470  0.20820149  0.94247210    -0.39100
O1280       O  0.50476794  0.25536627  0.91463335    -0.39100
O1281       O  0.13031659  0.22657199  0.92975534    -0.39800
O1282       O  0.14333670  0.26172858  0.89882838    -0.39800
C1283       C  0.07378174  0.22734997  0.55323331    -0.12100
C1284       C  0.08562897  0.25765430  0.56016233     0.04900
C1285       C  0.07499146  0.26499832  0.58418182    -0.07400
C1286       C  0.05309982  0.24186853  0.60093558    -0.08200
C1287       C  0.04199861  0.21141290  0.59417258    -0.02700
C1288       C  0.05244626  0.20445357  0.56977609     0.04100
N1289       N  0.04129903  0.17416602  0.56100116     0.66600
H1290       H  0.08102258  0.22115419  0.53451009     0.15500
H1291       H  0.04558368  0.24768820  0.61968941     0.15200
N1292       N  0.08730585  0.29556231  0.59247445     0.74300
O1293       O  0.01942482  0.16282332  0.54439656    -0.39100
O1294       O  0.05794168  0.16223076  0.56377147    -0.39100
O1295       O  0.07474418  0.31046818  0.58476832    -0.39800
O1296       O  0.11331629  0.30897053  0.60319466    -0.39800
C1297       C  0.19245009  0.43871390  0.93960184    -0.12100
C1298       C  0.16720352  0.40962884  0.93786782     0.04900
C1299       C  0.14472239  0.40441040  0.91814666    -0.07400
C1300       C  0.14679416  0.42838169  0.90233478    -0.08200
C1301       C  0.17114095  0.45775272  0.90534752    -0.02700
C1302       C  0.19457768  0.46264947  0.92375323     0.04100
N1303       N  0.21944940  0.49204154  0.92846459     0.66600
H1304       H  0.21012533  0.44349340  0.95448773     0.15500
H1305       H  0.12896621  0.42401059  0.88771947     0.15200
N1306       N  0.11997606  0.37496858  0.91343516     0.74300
O1307       O  0.21514202  0.51017657  0.94284838    -0.39100
O1308       O  0.24619378  0.49656700  0.92520316    -0.39100
O1309       O  0.09370130  0.36841733  0.92170293    -0.39800
O1310       O  0.12298427  0.35855433  0.89575425    -0.39800
C1311       C  0.25211783  0.35752579  0.91964745    -0.12100
C1312       C  0.23482419  0.33066894  0.93438573     0.04900
C1313       C  0.23774983  0.30530377  0.92726801    -0.07400
C1314       C  0.25939434  0.30810412  0.90767826    -0.08200
C1315       C  0.27838522  0.33570416  0.89465661    -0.02700
C1316       C  0.27345159  0.36018302  0.89989582     0.04100
N1317       N  0.28813253  0.38725938  0.88415411     0.66600
H1318       H  0.24932303  0.37695090  0.92347497     0.15500
H1319       H  0.26212181  0.28868925  0.90357086     0.15200
N1320       N  0.21973286  0.27669680  0.94009713     0.74300
O1321       O  0.27371382  0.39023546  0.86438779    -0.39100
O1322       O  0.30892054  0.41054540  0.89517575    -0.39100
O1323       O  0.19789387  0.25632678  0.92699779    -0.39800
O1324       O  0.23029876  0.26955847  0.96047474    -0.39800
C1325       C  0.19290836  0.41991165  0.57996615    -0.12100
C1326       C  0.17389491  0.41162433  0.55686201     0.04900
C1327       C  0.15742789  0.42686331  0.55158573    -0.07400
C1328       C  0.15914431  0.44875292  0.56973286    -0.08200
C1329       C  0.17680228  0.45604695  0.59365286    -0.02700
C1330       C  0.19416834  0.44163613  0.59851658     0.04100
N1331       N  0.21169398  0.44731271  0.62287259     0.66600
H1332       H  0.20586980  0.40859836  0.58428270     0.15500
H1333       H  0.14605698  0.45988163  0.56514162     0.15200
N1334       N  0.13912001  0.42077567  0.52759809     0.74300
O1335       O  0.19927251  0.43218868  0.64428596    -0.39100
O1336       O  0.24024790  0.46121954  0.62098048    -0.39100
O1337       O  0.11061931  0.40509717  0.52972342    -0.39800
O1338       O  0.15059418  0.43610233  0.50606659    -0.39800
C1339       C  0.26820274  0.34035429  0.55054957    -0.12100
C1340       C  0.23792068  0.32254803  0.55859827     0.04900
C1341       C  0.23135231  0.30547473  0.58302055    -0.07400
C1342       C  0.25539133  0.30775758  0.59933769    -0.08200
C1343       C  0.28595880  0.32622045  0.59129477    -0.02700
C1344       C  0.29202884  0.34207079  0.56611113     0.04100
N1345       N  0.32196149  0.35871493  0.55482512     0.66600
H1346       H  0.27355314  0.35245185  0.53116346     0.15500
H1347       H  0.25009017  0.29533547  0.61852095     0.15200
N1348       N  0.20073975  0.28654910  0.59195535     0.74300
O1349       O  0.33618165  0.34492096  0.54864873    -0.39100
O1350       O  0.32985589  0.38388724  0.54368275    -0.39100
O1351       O  0.18856292  0.25854977  0.58843379    -0.39800
O1352       O  0.18860739  0.29673077  0.60837217    -0.39800
Fe1353     Fe  0.20313792  0.86508712  0.00170510     1.65800
Fe1354     Fe  0.12825147  0.83702348  0.49924626     1.73200
Fe1355     Fe  0.16227017  0.79313985  0.49923824     1.54400
O1356       O  0.19703245  0.80404052  0.47075611    -0.81500
O1357       O  0.10933296  0.80375030  0.03459855    -0.79800
O1358       O  0.21731709  0.85303904  0.46290483    -0.84000
O1359       O  0.22251488  0.84767857  0.02856620    -0.78900
O1360       O  0.13233533  0.77838470  0.46710656    -0.80700
O1361       O  0.14300270  0.86852937  0.02411127    -0.83400
C1362       C  0.21424840  0.82358130  0.04227368     0.97400
C1363       C  0.21467398  0.82757955  0.45723786     1.04800
O1364       O  0.16513266  0.83302350  0.49850441    -1.12400
O1365       O  0.14109842  0.86407132  0.46397463    -0.74800
O1366       O  0.19098487  0.89147618  0.47023404    -0.78300
O1367       O  0.18878192  0.80032154  0.03883831    -0.79000
C1368       C  0.16675672  0.88675726  0.45819771     0.96300
O1369       O  0.19089279  0.88210614  0.03465743    -0.77000
O1370       O  0.10372910  0.79974880  0.47455736    -0.82200
C1371       C  0.10756504  0.77843825  0.03936785     0.98900
C1372       C  0.10890321  0.78071037  0.46228771     1.04800
O1373       O  0.12459331  0.77000150  0.02748468    -0.77800
C1374       C  0.16730438  0.88483491  0.03730763     1.03100
Fe1375     Fe  0.37264863  0.66855440  0.50135029     1.65800
Fe1376     Fe  0.29186826  0.62731542  0.99862221     1.73200
Fe1377     Fe  0.33367094  0.70391569  0.99752898     1.54400
O1378       O  0.36468574  0.72013523  0.02923958    -0.81500
O1379       O  0.27365794  0.64962581  0.47973186    -0.79800
O1380       O  0.39170375  0.69675479  0.02448613    -0.84000
O1381       O  0.38792400  0.69583014  0.46645027    -0.78900
O1382       O  0.29981738  0.69191439  0.02656106    -0.80700
O1383       O  0.30582171  0.61601204  0.46950724    -0.83400
C1384       C  0.38806487  0.72049339  0.46202041     0.97400
C1385       C  0.38709505  0.71659670  0.03568387     1.04800
O1386       O  0.33163625  0.66430551  0.99767006    -1.12400
O1387       O  0.30511281  0.60642083  0.02712065    -0.74800
O1388       O  0.35529099  0.63307353  0.03144186    -0.78300
O1389       O  0.37121576  0.72806040  0.47539901    -0.79000
C1390       C  0.32954724  0.61182659  0.03897254     0.96300
O1391       O  0.35483728  0.63111090  0.47627454    -0.77000
O1392       O  0.27652572  0.64217485  0.03089396    -0.82200
C1393       C  0.28088655  0.67400382  0.46695794     0.98900
C1394       C  0.28064940  0.66769234  0.03819554     1.04800
O1395       O  0.30640462  0.69736441  0.46981713    -0.77800
C1396       C  0.32972209  0.61437173  0.46446643     1.03100
C1397       C  0.47203137  0.99255690  0.12732228     0.02400
C1398       C  0.50402497  0.53122169  0.14142568     0.02400
C1399       C  0.03098088  0.52524699  0.13651597     0.02400
C1400       C  0.02842937  0.99855663  0.13394987     0.02400
C1401       C  0.50081927  0.96546117  0.12364616     0.02400
C1402       C  0.47270200  0.96505542  0.12762243     0.02400
C1403       C  0.30837519  0.97620825  0.13498846     0.80400
N1404       N  0.33434095  0.97456543  0.13428367    -0.77900
C1405       C  0.35853116  0.99442653  0.11943398     0.82800
N1406       N  0.35696425  0.52802254  0.11682044    -0.77900
C1407       C  0.32897323  0.52559849  0.11559568     0.82900
N1408       N  0.30667654  0.99846817  0.12076460    -0.79600
C1409       C  0.19037171  0.50810559  0.15238914     0.80400
N1410       N  0.16342016  0.50806955  0.15433759    -0.77900
C1411       C  0.14102969  0.99417764  0.13264301     0.82800
N1412       N  0.14349449  0.97464339  0.11546027    -0.77900
C1413       C  0.16982896  0.97370584  0.11312727     0.82900
N1414       N  0.19446339  0.99336764  0.12792426    -0.79600
C1415       C  0.19466899  0.66694567  0.11612688     0.80400
N1416       N  0.19685868  0.69068801  0.13054740    -0.77900
C1417       C  0.17352889  0.68698616  0.14715138     0.82800
N1418       N  0.14801162  0.65971977  0.14884273    -0.77900
C1419       C  0.14581942  0.63597582  0.13449674     0.82900
N1420       N  0.16932378  0.63979877  0.11835841    -0.79600
C1421       C  0.48972316  0.67445145  0.15052167     0.80400
N1422       N  0.50809367  0.69714787  0.13297906    -0.77900
C1423       C  0.01857393  0.68822059  0.11184965     0.82800
N1424       N  0.02138599  0.66324592  0.11538538    -0.77900
C1425       C  0.51748815  0.64949273  0.14076720     0.82900
N1426       N  0.49491872  0.65102174  0.15435630    -0.79600
C1427       C  0.30875467  0.82276687  0.10789240     0.80400
N1428       N  0.30472325  0.80007317  0.12516556    -0.77900
C1429       C  0.32748833  0.80350565  0.14221624     0.82800
N1430       N  0.35395606  0.82995540  0.14228330    -0.77900
C1431       C  0.35829632  0.85282713  0.12525506     0.82900
N1432       N  0.33551955  0.84901840  0.10810937    -0.79600
C1433       C  0.02951309  0.83251603  0.12819861     0.80400
N1434       N  0.02774451  0.85797226  0.13207101    -0.77900
C1435       C  0.50752805  0.85616674  0.11562065     0.82800
N1436       N  0.48482978  0.83215161  0.10313017    -0.77900
C1437       C  0.48464140  0.80550314  0.10186524     0.82900
N1438       N  0.50801382  0.80314769  0.11335979    -0.79600
Fe1439     Fe  0.33731894  0.62633719  0.25162038     1.65800
Fe1440     Fe  0.29144404  0.65760010  0.25130752     1.73200
Fe1441     Fe  0.36762262  0.70198444  0.25381345     1.54400
O1442       O  0.39056935  0.68850733  0.28033634    -0.81500
O1443       O  0.30157965  0.68621516  0.21777371    -0.79800
O1444       O  0.36265761  0.63928544  0.28709301    -0.84000
O1445       O  0.37599506  0.64702859  0.22760329    -0.78900
O1446       O  0.35059746  0.71326801  0.28753576    -0.80700
O1447       O  0.27529192  0.62078586  0.22543675    -0.83400
C1448       C  0.39181056  0.67199709  0.21529661     0.97400
C1449       C  0.38495465  0.66460694  0.29319889     1.04800
O1450       O  0.33212001  0.66200690  0.25195204    -1.12400
O1451       O  0.27822256  0.62901181  0.28485059    -0.74800
O1452       O  0.29925023  0.60050291  0.27559183    -0.78300
O1453       O  0.38842585  0.69465667  0.22008389    -0.79000
C1454       C  0.28029186  0.60537491  0.28866847     0.96300
O1455       O  0.31203647  0.60973704  0.21630838    -0.77000
O1456       O  0.30171536  0.69367039  0.27749811    -0.82200
C1457       C  0.32425226  0.71248828  0.21525713     0.98900
C1458       C  0.32502639  0.71204324  0.29086282     1.04800
O1459       O  0.34886038  0.72088205  0.22827078    -0.77800
C1460       C  0.28530247  0.60545203  0.21294967     1.03100
Fe1461     Fe  0.12986771  0.79364546  0.24768902     1.65800
Fe1462     Fe  0.20676367  0.83649502  0.24813556     1.73200
Fe1463     Fe  0.16247008  0.86928723  0.24463221     1.54400
O1464       O  0.13688891  0.85372019  0.20954441    -0.81500
O1465       O  0.22392479  0.87419275  0.27333388    -0.79800
O1466       O  0.10666347  0.80541348  0.21942458    -0.84000
O1467       O  0.11128090  0.80512969  0.28001005    -0.78900
O1468       O  0.20060798  0.89253386  0.22003076    -0.80700
O1469       O  0.19685011  0.80961736  0.28284559    -0.83400
C1470       C  0.10752178  0.82787094  0.28189409     0.97400
C1471       C  0.11359682  0.82851169  0.20470031     1.04800
O1472       O  0.16639885  0.83309047  0.24705887    -1.12400
O1473       O  0.19441173  0.79959288  0.22290777    -0.74800
O1474       O  0.14473316  0.77844826  0.21536677    -0.78300
O1475       O  0.12338237  0.85183069  0.26828856    -0.79000
C1476       C  0.17045054  0.78068203  0.21058554     0.96300
O1477       O  0.14830177  0.77650481  0.27567046    -0.77000
O1478       O  0.22105168  0.86320041  0.21331944    -0.82200
C1479       C  0.21400675  0.89008438  0.28506085     0.98900
C1480       C  0.21924785  0.88656233  0.20773788     1.04800
O1481       O  0.18813533  0.88738944  0.27973143    -0.77800
C1482       C  0.17314491  0.78496399  0.28841634     1.03100
C1483       C  0.02921123  0.50140640  0.36536826     0.02400
C1484       C  0.99617175  0.97294739  0.36514273     0.02400
C1485       C  0.46817468  0.97445672  0.36009401     0.02400
C1486       C  0.46949825  0.50131740  0.36168233     0.02400
C1487       C  0.00243196  0.53049730  0.36562359     0.02400
C1488       C  0.03004268  0.52963191  0.36462828     0.02400
C1489       C  0.19105957  0.51659118  0.36143570     0.80400
N1490       N  0.16397908  0.51586231  0.36025763    -0.77900
C1491       C  0.13930431  0.49388357  0.37307029     0.82800
N1492       N  0.14283321  0.98183192  0.39110058    -0.77900
C1493       C  0.17013457  0.98265802  0.39128662     0.82900
N1494       N  0.19352806  0.49477315  0.37552223    -0.79600
C1495       C  0.30284075  0.98240940  0.35509581     0.80400
N1496       N  0.30420452  0.50832050  0.36991087    -0.77900
C1497       C  0.32746987  0.52678477  0.38693658     0.82800
N1498       N  0.35373768  0.52538708  0.38671521    -0.77900
C1499       C  0.35728187  0.50616343  0.37019527     0.82900
N1500       N  0.32969689  0.98232286  0.35490774    -0.79600
C1501       C  0.47683643  0.67052770  0.36668767     0.80400
N1502       N  0.47872559  0.64500603  0.36515921    -0.77900
C1503       C  0.50050550  0.64203265  0.37856389     0.82800
N1504       N  0.01511301  0.66285194  0.39468712    -0.77900
C1505       C  0.01430557  0.68909758  0.39584396     0.82900
N1506       N  0.49714525  0.69372519  0.38222163    -0.79600
C1507       C  0.19128384  0.67345363  0.39324164     0.80400
N1508       N  0.19343925  0.69726498  0.37849785    -0.77900
C1509       C  0.16999528  0.69359058  0.36205327     0.82800
N1510       N  0.14514172  0.66605108  0.36026902    -0.77900
C1511       C  0.14269938  0.64232103  0.37475933     0.82900
N1512       N  0.16583287  0.64620399  0.39128236    -0.79600
C1513       C  0.01990670  0.83024640  0.35668183     0.80400
N1514       N  0.01957566  0.85668069  0.35605282    -0.77900
C1515       C  0.99969005  0.86095401  0.37145939     0.82800
N1516       N  0.47707085  0.83941700  0.38743677    -0.77900
C1517       C  0.47645404  0.81251635  0.38943704     0.82900
N1518       N  0.99969695  0.80744391  0.37301705    -0.79600
C1519       C  0.30340403  0.83189055  0.37915443     0.80400
N1520       N  0.30250056  0.80731322  0.36731945    -0.77900
C1521       C  0.32747093  0.80939068  0.35444130     0.82800
N1522       N  0.35340224  0.83633614  0.35345459    -0.77900
C1523       C  0.35473891  0.86102942  0.36533077     0.82900
N1524       N  0.32965081  0.85862120  0.37814440    -0.79600
C1525       C  0.49249811  0.57085654  0.34731988    -0.12100
C1526       C  0.00229239  0.55945287  0.37004520     0.04900
C1527       C  0.00793613  0.57381072  0.39600201    -0.07400
C1528       C  0.00578302  0.60027445  0.39856719    -0.08200
C1529       C  0.50214590  0.61400476  0.37511405    -0.02700
C1530       C  0.49467167  0.59905021  0.34969430     0.04100
N1531       N  0.49109922  0.61312570  0.32558235     0.66600
H1532       H  0.48754902  0.56021856  0.32751676     0.15500
H1533       H  0.00954710  0.61112076  0.41838370     0.15200
N1534       N  0.01545994  0.56196288  0.41985245     0.74300
O1535       O  0.51338465  0.63667980  0.31609258    -0.39100
O1536       O  0.46559992  0.60233202  0.31398992    -0.39100
O1537       O  0.03096873  0.57935232  0.43892872    -0.39800
O1538       O  0.00519848  0.53406970  0.42292296    -0.39800
C1539       C  0.07696870  0.56409840  0.39026549    -0.12100
C1540       C  0.05972836  0.55812216  0.36614473     0.04900
C1541       C  0.07033672  0.58001964  0.34490563    -0.07400
C1542       C  0.09774140  0.60669614  0.34816171    -0.08200
C1543       C  0.11478603  0.61279041  0.37228588    -0.02700
C1544       C  0.10414423  0.59114527  0.39356721     0.04100
N1545       N  0.11962180  0.59698758  0.41923301     0.66600
H1546       H  0.06868320  0.54803006  0.40707638     0.15500
H1547       H  0.10574989  0.62289319  0.33146578     0.15200
N1548       N  0.05353764  0.57636097  0.32019973     0.74300
O1549       O  0.11792911  0.61488210  0.43607795    -0.39100
O1550       O  0.13696211  0.58622832  0.42410957    -0.39100
O1551       O  0.04896296  0.59743761  0.31238435    -0.39800
O1552       O  0.05095104  0.55693713  0.30290361    -0.39800
C1553       C  0.40247403  0.89677398  0.34089106    -0.12100
C1554       C  0.38331692  0.89027559  0.36389795     0.04900
C1555       C  0.39207895  0.91177126  0.38499988    -0.07400
C1556       C  0.41954689  0.93862943  0.38293046    -0.08200
C1557       C  0.43869889  0.94541617  0.35994599    -0.02700
C1558       C  0.42979424  0.92404609  0.33851100     0.04100
N1559       N  0.44782533  0.92922016  0.31421784     0.66600
H1560       H  0.39598570  0.88070625  0.32431952     0.15500
H1561       H  0.42654100  0.95393136  0.40010387     0.15200
N1562       N  0.37435498  0.90620377  0.40947353     0.74300
O1563       O  0.45752420  0.91123160  0.30875012    -0.39100
O1564       O  0.44504379  0.94398213  0.29470157    -0.39100
O1565       O  0.37811037  0.89210312  0.42905478    -0.39800
O1566       O  0.36176498  0.92187696  0.41419642    -0.39800
C1567       C  0.42893617  0.00666985  0.38953258    -0.12100
C1568       C  0.44096863  0.50334753  0.36340301     0.04900
C1569       C  0.42341735  0.50093301  0.34006229    -0.07400
C1570       C  0.39638896  0.50194371  0.34307938    -0.08200
C1571       C  0.38636434  0.50579529  0.36882359    -0.02700
C1572       C  0.40106831  0.00596742  0.39307672     0.04100
N1573       N  0.39227209  0.00979890  0.42006482     0.66600
H1574       H  0.44293277  0.00984626  0.40736406     0.15500
H1575       H  0.38341376  0.50031454  0.32489411     0.15200
N1576       N  0.43244481  0.49775161  0.31298916     0.74300
O1577       O  0.37884809  0.98724356  0.43572182    -0.39100
O1578       O  0.40425806  0.03579218  0.43023785    -0.39100
O1579       O  0.45011845  0.52115965  0.29969474    -0.39800
O1580       O  0.41474000  0.47467758  0.29962977    -0.39800
C1581       C  0.10340149  0.50320902  0.34651036    -0.12100
C1582       C  0.11041794  0.49409642  0.37127240     0.04900
C1583       C  0.08992887  0.99497387  0.39712080    -0.07400
C1584       C  0.06199556  0.99415658  0.39346302    -0.08200
C1585       C  0.05793240  0.49992614  0.36691213    -0.02700
C1586       C  0.07732036  0.50591786  0.34393223     0.04100
N1587       N  0.07119166  0.51465131  0.31779992     0.66600
H1588       H  0.11820741  0.50795444  0.32880562     0.15500
H1589       H  0.04776452  0.99104946  0.41119536     0.15200
N1590       N  0.09951075  0.99257529  0.42417599     0.74300
O1591       O  0.04893024  0.49589875  0.30395448    -0.39100
O1592       O  0.09227063  0.53707379  0.30559935    -0.39100
O1593       O  0.12038926  0.01552980  0.43558955    -0.39800
O1594       O  0.09060764  0.96699535  0.43477192    -0.39800
C1595       C  0.00740487  0.93466057  0.34581839    -0.12100
C1596       C  0.99633602  0.94385832  0.36777921     0.04900
C1597       C  0.48563480  0.92705827  0.38942260    -0.07400
C1598       C  0.48559742  0.89962301  0.39014469    -0.08200
C1599       C  0.99911887  0.88972711  0.36994395    -0.02700
C1600       C  0.00961527  0.90861677  0.34648953     0.04100
N1601       N  0.02180496  0.90138770  0.32301220     0.66600
H1602       H  0.01416021  0.94851576  0.32607134     0.15500
H1603       H  0.47712354  0.88581007  0.40837735     0.15200
N1604       N  0.47598193  0.93622731  0.41347434     0.74300
O1605       O  0.00472879  0.88855114  0.30286842    -0.39100
O1606       O  0.05024398  0.91457751  0.31954161    -0.39100
O1607       O  0.49589899  0.95486047  0.42937258    -0.39800
O1608       O  0.44978170  0.91919608  0.42308517    -0.39800
C1609       C  0.14576146  0.74005055  0.31815389    -0.12100
C1610       C  0.17368865  0.76432052  0.30994113     0.04900
C1611       C  0.20064646  0.76647670  0.32101472    -0.07400
C1612       C  0.19900473  0.74400406  0.33895082    -0.08200
C1613       C  0.17097871  0.71884830  0.34575165    -0.02700
C1614       C  0.14408578  0.71743385  0.33536211     0.04100
N1615       N  0.11456969  0.69299155  0.34157072     0.66600
H1616       H  0.12463793  0.73791515  0.31055009     0.15500
H1617       H  0.21991739  0.74562820  0.34653360     0.15200
N1618       N  0.22993587  0.79027574  0.31327682     0.74300
O1619       O  0.09945018  0.69569880  0.36094766    -0.39100
O1620       O  0.10092182  0.67304189  0.32369714    -0.39100
O1621       O  0.24473835  0.81105855  0.33013038    -0.39800
O1622       O  0.24366190  0.78662677  0.29317975    -0.39800
C1623       C  0.07775603  0.81104070  0.32541911    -0.12100
C1624       C  0.08367874  0.82655415  0.30033453     0.04900
C1625       C  0.06666648  0.84073792  0.29320827    -0.07400
C1626       C  0.04552703  0.84063702  0.31173700    -0.08200
C1627       C  0.04058340  0.82651287  0.33749473    -0.02700
C1628       C  0.05638967  0.81086368  0.34405336     0.04100
N1629       N  0.05189673  0.79540419  0.36960239     0.66600
H1630       H  0.09043776  0.79975012  0.33097328     0.15500
H1631       H  0.03277559  0.85172285  0.30579819     0.15200
N1632       N  0.06967303  0.85438373  0.26683249     0.74300
O1633       O  0.04173884  0.76738989  0.36929349    -0.39100
O1634       O  0.06623373  0.81000185  0.39042135    -0.39100
O1635       O  0.05197827  0.83915983  0.24779511    -0.39800
O1636       O  0.08434331  0.88263157  0.26462705    -0.39800
C1637       C  0.24838345  0.94497578  0.34504939    -0.12100
C1638       C  0.27871905  0.96177006  0.33605659     0.04900
C1639       C  0.28659648  0.95550680  0.30992133    -0.07400
C1640       C  0.26504341  0.93194019  0.29426354    -0.08200
C1641       C  0.23507003  0.91445703  0.30345871    -0.02700
C1642       C  0.22650092  0.92147694  0.32892414     0.04100
N1643       N  0.19640742  0.90379433  0.33956643     0.66600
H1644       H  0.24195355  0.94911856  0.36516138     0.15500
H1645       H  0.27178647  0.92759080  0.27436161     0.15200
N1646       N  0.31635791  0.97328245  0.29854890     0.74300
O1647       O  0.19063995  0.88188416  0.35526294    -0.39100
O1648       O  0.17824449  0.91414289  0.33879207    -0.39100
O1649       O  0.33305666  0.96151366  0.29503117    -0.39800
O1650       O  0.32243750  0.99710729  0.28568856    -0.39800
C1651       C  0.42426641  0.64503025  0.34997590    -0.12100
C1652       C  0.45220620  0.67165100  0.35140042     0.04900
C1653       C  0.45641079  0.69673061  0.33581591    -0.07400
C1654       C  0.43342769  0.69417391  0.31824198    -0.08200
C1655       C  0.40630735  0.66681064  0.31517361    -0.02700
C1656       C  0.40153932  0.64224822  0.33202822     0.04100
N1657       N  0.37411175  0.61412312  0.33116467     0.66600
H1658       H  0.42038534  0.62567026  0.36221590     0.15500
H1659       H  0.43777046  0.71350650  0.30577703     0.15200
N1660       N  0.48448943  0.72424873  0.33564164     0.74300
O1661       O  0.37302049  0.59350042  0.31614634    -0.39100
O1662       O  0.35541564  0.60728868  0.35074890    -0.39100
O1663       O  0.50574729  0.72654375  0.32027999    -0.39800
O1664       O  0.48440447  0.74785426  0.34314688    -0.39800
C1665       C  0.24393915  0.59095082  0.32774803    -0.12100
C1666       C  0.25947510  0.58257042  0.30878609     0.04900
C1667       C  0.25396481  0.55246426  0.30913066    -0.07400
C1668       C  0.23264735  0.53159015  0.32752001    -0.08200
C1669       C  0.21657003  0.53997570  0.34564201    -0.02700
C1670       C  0.22269831  0.57005751  0.34604259     0.04100
N1671       N  0.20779816  0.57985494  0.36517066     0.66600
H1672       H  0.24813996  0.61389363  0.32838605     0.15500
H1673       H  0.22783845  0.50843912  0.32691995     0.15200
N1674       N  0.26885337  0.54223224  0.29046703     0.74300
O1675       O  0.21880174  0.58802576  0.38884646    -0.39100
O1676       O  0.18813407  0.58641690  0.35668981    -0.39100
O1677       O  0.28895635  0.53654942  0.29944607    -0.39800
O1678       O  0.25679858  0.53177008  0.26753938    -0.39800
C1679       C  0.29948059  0.76292017  0.32661084    -0.12100
C1680       C  0.32606708  0.78285441  0.34052631     0.04900
C1681       C  0.35112792  0.77767779  0.33981887    -0.07400
C1682       C  0.34938552  0.75344336  0.32494822    -0.08200
C1683       C  0.32332744  0.73418741  0.30986167    -0.02700
C1684       C  0.29788216  0.73894323  0.31123369     0.04100
N1685       N  0.27076211  0.72079356  0.29612338     0.66600
H1686       H  0.28005418  0.76659474  0.32681520     0.15500
H1687       H  0.36920370  0.75042089  0.32454184     0.15200
N1688       N  0.37871867  0.79686262  0.35388787     0.74300
O1689       O  0.24817893  0.69976435  0.30821828    -0.39100
O1690       O  0.26698240  0.73010069  0.27321510    -0.39100
O1691       O  0.38404086  0.78833843  0.37656173    -0.39800
O1692       O  0.40039481  0.81775679  0.34073504    -0.39800
C1693       C  0.10238170  0.85230832  0.16509037    -0.12100
C1694       C  0.09344477  0.82668589  0.18165638     0.04900
C1695       C  0.06487096  0.80098047  0.17661144    -0.07400
C1696       C  0.04515488  0.80248780  0.15725339    -0.08200
C1697       C  0.05323927  0.82914138  0.14277252    -0.02700
C1698       C  0.08271181  0.85369676  0.14580978     0.04100
N1699       N  0.09318487  0.88018224  0.12928286     0.66600
H1700       H  0.12454254  0.87189218  0.16752139     0.15500
H1701       H  0.02269634  0.78329926  0.15484415     0.15200
N1702       N  0.05474290  0.77359240  0.19164235     0.74300
O1703       O  0.09566444  0.90380871  0.13986940    -0.39100
O1704       O  0.10706239  0.88207572  0.10711064    -0.39100
O1705       O  0.03720045  0.76816288  0.21199046    -0.39800
O1706       O  0.05671221  0.75225525  0.18061675    -0.39800
C1707       C  0.30757455  0.72668524  0.17187427    -0.12100
C1708       C  0.32236994  0.73498953  0.19730064     0.04900
C1709       C  0.33644139  0.76549085  0.20519087    -0.07400
C1710       C  0.33739857  0.78716256  0.18704497    -0.08200
C1711       C  0.32395727  0.77919936  0.16110497    -0.02700
C1712       C  0.30842528  0.74856839  0.15371803     0.04100
N1713       N  0.29370687  0.73936525  0.12779909     0.66600
H1714       H  0.29627619  0.70334475  0.16567409     0.15500
H1715       H  0.34858437  0.81044958  0.19343853     0.15200
N1716       N  0.34898953  0.77475303  0.23200275     0.74300
O1717       O  0.30917711  0.74551761  0.10596573    -0.39100
O1718       O  0.26539109  0.72888980  0.12648179    -0.39100
O1719       O  0.37744823  0.78854017  0.23493671    -0.39800
O1720       O  0.33227416  0.77504537  0.25122171    -0.39800
C1721       C  0.41467746  0.64683164  0.18849343    -0.12100
C1722       C  0.41525668  0.67380508  0.19543172     0.04900
C1723       C  0.43921549  0.70104850  0.18485953    -0.07400
C1724       C  0.46281865  0.70082378  0.16952766    -0.08200
C1725       C  0.46310212  0.67386916  0.16437210    -0.02700
C1726       C  0.43798781  0.64650414  0.17336629     0.04100
N1727       N  0.43549752  0.61790155  0.16754215     0.66600
H1728       H  0.39620206  0.62544928  0.19539643     0.15500
H1729       H  0.48147830  0.72197112  0.16241912     0.15200
N1730       N  0.44052467  0.72920166  0.18995376     0.74300
O1731       O  0.44199454  0.60463592  0.18605779    -0.39100
O1732       O  0.41949282  0.60288888  0.14755627    -0.39100
O1733       O  0.45794077  0.74611106  0.20838435    -0.39800
O1734       O  0.43051448  0.74003740  0.17205579    -0.39800
C1735       C  0.19789726  0.75496664  0.19279852    -0.12100
C1736       C  0.17243700  0.75921338  0.19130074     0.04900
C1737       C  0.14845667  0.74073691  0.17345063    -0.07400
C1738       C  0.14966453  0.71766569  0.15906147    -0.08200
C1739       C  0.17448156  0.71267827  0.16168244    -0.02700
C1740       C  0.19902377  0.73186199  0.17840888     0.04100
N1741       N  0.22421077  0.72693422  0.18284990     0.66600
H1742       H  0.21648175  0.76857740  0.20643530     0.15500
H1743       H  0.13093571  0.70341625  0.14579225     0.15200
N1744       N  0.12262949  0.74482158  0.16965291     0.74300
O1745       O  0.25031643  0.74709957  0.17554463    -0.39100
O1746       O  0.22190917  0.70811325  0.20090817    -0.39100
O1747       O  0.12225215  0.76025469  0.14949228    -0.39800
O1748       O  0.09796250  0.72709628  0.18153140    -0.39800
C1749       C  0.24516908  0.54785217  0.15634208    -0.12100
C1750       C  0.21637065  0.53048320  0.16866352     0.04900
C1751       C  0.21192059  0.53684510  0.19596326    -0.07400
C1752       C  0.23478855  0.56168885  0.20925558    -0.08200
C1753       C  0.26316422  0.57951048  0.19688617    -0.02700
C1754       C  0.26901164  0.57138730  0.17080260     0.04100
N1755       N  0.29875216  0.58644428  0.15890832     0.66600
H1756       H  0.24922160  0.54296479  0.13559823     0.15500
H1757       H  0.23066110  0.56648722  0.23003429     0.15200
N1758       N  0.18493132  0.51752959  0.21112584     0.74300
O1759       O  0.31654704  0.57602424  0.16291688    -0.39100
O1760       O  0.30465847  0.60551670  0.14001309    -0.39100
O1761       O  0.18048166  0.49189701  0.21832864    -0.39800
O1762       O  0.17110698  0.52884508  0.22379814    -0.39800
C1763       C  0.24578966  0.93841908  0.18830814    -0.12100
C1764       C  0.24023809  0.90855004  0.18711651     0.04900
C1765       C  0.25589579  0.90111047  0.16714689    -0.07400
C1766       C  0.27663564  0.92336711  0.14940161    -0.08200
C1767       C  0.28279440  0.95327401  0.15129163    -0.02700
C1768       C  0.26709414  0.96075945  0.17091467     0.04100
N1769       N  0.27407146  0.99119732  0.17484825     0.66600
H1770       H  0.23447690  0.94488876  0.20364250     0.15500
H1771       H  0.28879275  0.91737000  0.13451703     0.15200
N1772       N  0.25166975  0.87137582  0.16481512     0.74300
O1773       O  0.25697314  0.00018010  0.16461821    -0.39100
O1774       O  0.27940674  0.50776279  0.19692190    -0.39100
O1775       O  0.23644685  0.85517389  0.14503082    -0.39800
O1776       O  0.26931904  0.86468789  0.17755213    -0.39800
C1777       C  0.08037171  0.56010555  0.11459733    -0.12100
C1778       C  0.06143606  0.55276188  0.13765920     0.04900
C1779       C  0.07166796  0.57180247  0.16079923    -0.07400
C1780       C  0.09918130  0.59883626  0.15926958    -0.08200
C1781       C  0.11765424  0.60657562  0.13568837    -0.02700
C1782       C  0.10844522  0.58620128  0.11353886     0.04100
N1783       N  0.12665652  0.59194837  0.08935207     0.66600
H1784       H  0.07288712  0.54573672  0.09673803     0.15500
H1785       H  0.10650119  0.61353946  0.17696388     0.15200
N1786       N  0.05548385  0.56349203  0.18638434     0.74300
O1787       O  0.14298100  0.57962506  0.08685226    -0.39100
O1788       O  0.12082794  0.60276352  0.06836250    -0.39100
O1789       O  0.05965730  0.54642038  0.20246786    -0.39800
O1790       O  0.04592087  0.58016640  0.19631274    -0.39800
C1791       C  0.99561545  0.56709349  0.15868777    -0.12100
C1792       C  0.50889585  0.56224734  0.14040782     0.04900
C1793       C  0.50982612  0.57690312  0.11548084    -0.07400
C1794       C  0.51452243  0.60624669  0.11607036    -0.08200
C1795       C  0.51828986  0.62120544  0.14104283    -0.02700
C1796       C  0.99486642  0.59413753  0.15855726     0.04100
N1797       N  0.98480633  0.60236444  0.18287767     0.66600
H1798       H  0.98791130  0.55302273  0.17680027     0.15500
H1799       H  0.51388397  0.61688095  0.09700718     0.15200
N1800       N  0.50565441  0.56248164  0.08947160     0.74300
O1801       O  0.95767108  0.58629677  0.19078927    -0.39100
O1802       O  0.00435246  0.61929909  0.19999147    -0.39100
O1803       O  0.52880380  0.56838514  0.07512936    -0.39800
O1804       O  0.48064238  0.55342883  0.07738727    -0.39800
C1805       C  0.07310182  0.50117834  0.15835815    -0.12100
C1806       C  0.05742248  0.99739065  0.13263906     0.04900
C1807       C  0.06952609  0.99279031  0.10801748    -0.07400
C1808       C  0.09662686  0.99154932  0.10875560    -0.08200
C1809       C  0.11259686  0.99575279  0.13332253    -0.02700
C1810       C  0.10013081  0.50019282  0.16058197     0.04100
N1811       N  0.11552866  0.50791642  0.18623495     0.66600
H1812       H  0.06427978  0.50690134  0.17624162     0.15500
H1813       H  0.10560266  0.98791567  0.08977994     0.15200
N1814       N  0.05482339  0.98893157  0.08211987     0.74300
O1815       O  0.12739342  0.53484056  0.19408808    -0.39100
O1816       O  0.10923009  0.48743886  0.20381553    -0.39100
O1817       O  0.04778920  0.96526974  0.06879541    -0.39800
O1818       O  0.05843593  0.01185272  0.06907876    -0.39800
C1819       C  0.51332333  0.92800273  0.14297332    -0.12100
C1820       C  0.50183447  0.93701566  0.12093328     0.04900
C1821       C  0.98636333  0.92343962  0.10757426    -0.07400
C1822       C  0.98800538  0.89687623  0.10542090    -0.08200
C1823       C  0.50617534  0.88418646  0.11780937    -0.02700
C1824       C  0.51571469  0.90197049  0.14162994     0.04100
N1825       N  0.52605060  0.89301668  0.16530247     0.66600
H1826       H  0.51980561  0.94093941  0.16173075     0.15500
H1827       H  0.97850922  0.88300659  0.08743133     0.15200
N1828       N  0.97187615  0.93069051  0.08593174     0.74300
O1829       O  0.55397255  0.90657675  0.17096204    -0.39100
O1830       O  0.50709038  0.87714369  0.18355797    -0.39100
O1831       O  0.98781657  0.95173993  0.06944245    -0.39800
O1832       O  0.94553628  0.91121585  0.07871691    -0.39800
C1833       C  0.42449323  0.92939000  0.10578726    -0.12100
C1834       C  0.44354783  0.93606902  0.12843690     0.04900
C1835       C  0.43456153  0.91501815  0.15033308    -0.07400
C1836       C  0.40677864  0.88812958  0.14877949    -0.08200
C1837       C  0.38747860  0.88169188  0.12599780    -0.02700
C1838       C  0.39682099  0.90295093  0.10441164     0.04100
N1839       N  0.37949928  0.89768820  0.08003903     0.66600
H1840       H  0.43163287  0.94458681  0.08834869     0.15500
H1841       H  0.40016846  0.87236608  0.16577395     0.15200
N1842       N  0.45303160  0.92010550  0.17413928     0.74300
O1843       O  0.36530529  0.91204483  0.07638467    -0.38300
O1844       O  0.38610428  0.88686184  0.05954550    -0.39100
O1845       O  0.46066987  0.90077614  0.18069510    -0.39800
O1846       O  0.45384002  0.93804945  0.19229359    -0.39800
C1847       C  0.40642255  0.51705016  0.15848301    -0.12100
C1848       C  0.38719124  0.99358266  0.12089924     0.04900
C1849       C  0.40518894  0.99746002  0.09752193    -0.07400
C1850       C  0.43246346  0.99679175  0.10026040    -0.08200
C1851       C  0.44252373  0.99280315  0.12602385    -0.02700
C1852       C  0.43412817  0.51729814  0.16129763     0.04100
N1853       N  0.44854227  0.52466979  0.18750365     0.66600
H1854       H  0.39615739  0.52136627  0.17627211     0.15500
H1855       H  0.44517239  0.99783793  0.08202719     0.15200
N1856       N  0.39518743  0.00034177  0.07079756     0.74300
O1857       O  0.45785863  0.55087070  0.19648297    -0.39100
O1858       O  0.44221561  0.50387681  0.20465625    -0.39100
O1859       O  0.40575940  0.02593769  0.05973572    -0.39800
O1860       O  0.37335670  0.97791361  0.05967588    -0.39800
C1861       C  0.30776813  0.58227653  0.42277443    -0.12100
C1862       C  0.32835102  0.59162215  0.44472575     0.04900
C1863       C  0.34708076  0.57842387  0.44790304    -0.07400
C1864       C  0.34504444  0.55672458  0.42945537    -0.08200
C1865       C  0.32536733  0.54794924  0.40682554    -0.02700
C1866       C  0.30644886  0.56100225  0.40366871     0.04100
N1867       N  0.28640559  0.55378014  0.38097455     0.66600
H1868       H  0.29314868  0.59209874  0.41997552     0.15500
H1869       H  0.35946921  0.54684705  0.43298392     0.15200
N1870       N  0.36811976  0.58631875  0.47004037     0.74300
O1871       O  0.25850120  0.53636862  0.38499123    -0.39100
O1872       O  0.29457517  0.57133674  0.36057114    -0.39100
O1873       O  0.36112184  0.56920272  0.49073772    -0.39800
O1874       O  0.39560606  0.60555816  0.46593488    -0.39800
C1875       C  0.30265475  0.56202157  0.06218786    -0.12100
C1876       C  0.32750965  0.59137398  0.06156730     0.04900
C1877       C  0.35014406  0.59976198  0.08176572    -0.07400
C1878       C  0.34911264  0.57815054  0.10014394    -0.08200
C1879       C  0.32551663  0.54822353  0.09929683    -0.02700
C1880       C  0.30141442  0.54051548  0.08083978     0.04100
N1881       N  0.27654454  0.51062179  0.07932450     0.66600
H1882       H  0.28466326  0.55516197  0.04723065     0.15500
H1883       H  0.36726167  0.58469985  0.11487954     0.15200
N1884       N  0.37397234  0.63012318  0.08430238     0.74300
O1885       O  0.25085181  0.50547262  0.08806012    -0.39100
O1886       O  0.27809782  0.49241898  0.06277490    -0.39100
O1887       O  0.37137448  0.64694818  0.10179993    -0.39800
O1888       O  0.39970016  0.63781836  0.07387109    -0.39800
C1889       C  0.26774114  0.69216595  0.42430299    -0.12100
C1890       C  0.25831814  0.67540432  0.44874450     0.04900
C1891       C  0.22722895  0.66036079  0.45578380    -0.07400
C1892       C  0.20603361  0.66067855  0.43761221    -0.08200
C1893       C  0.21520838  0.67657424  0.41262205    -0.02700
C1894       C  0.24650988  0.69296200  0.40630280     0.04100
N1895       N  0.25710385  0.70890203  0.38099385     0.66600
H1896       H  0.29164681  0.70412834  0.41880209     0.15500
H1897       H  0.18218076  0.64863003  0.44325281     0.15200
N1898       N  0.21703011  0.64582996  0.48189241     0.74300
O1899       O  0.26523874  0.73653080  0.38034524    -0.39100
O1900       O  0.26643443  0.69804835  0.36252514    -0.39100
O1901       O  0.22070333  0.65200231  0.99520179    -0.39800
O1902       O  0.20390200  0.61755540  0.48360039    -0.39800
C1903       C  0.42047126  0.77333382  0.44792703    -0.12100
C1904       C  0.40989486  0.74288098  0.44218080     0.04900
C1905       C  0.42106233  0.73537269  0.41856456    -0.07400
C1906       C  0.44294067  0.75829478  0.40178553    -0.08200
C1907       C  0.45382740  0.78879659  0.40790520    -0.02700
C1908       C  0.44197762  0.79609801  0.43123360     0.04100
N1909       N  0.45201872  0.82652094  0.43895302     0.66600
H1910       H  0.41247423  0.77976214  0.46602126     0.15500
H1911       H  0.45092872  0.75213241  0.38358555     0.15200
N1912       N  0.40935013  0.70482590  0.41043892     0.74300
O1913       O  0.43496623  0.83772293  0.43454442    -0.39100
O1914       O  0.98007233  0.83175268  0.45753028    -0.39100
O1915       O  0.38779107  0.69359857  0.39349587    -0.39800
O1916       O  0.42495333  0.69200111  0.41458841    -0.39800
C1917       C  0.25375749  0.69229268  0.05947256    -0.12100
C1918       C  0.26142438  0.66925437  0.06033825     0.04900
C1919       C  0.24858067  0.64695822  0.08101608    -0.07400
C1920       C  0.22787723  0.64757885  0.09970041    -0.08200
C1921       C  0.21925220  0.66978762  0.09802957    -0.02700
C1922       C  0.23232838  0.69237285  0.07773263     0.04100
N1923       N  0.22199798  0.71368071  0.07366757     0.66600
H1924       H  0.26290311  0.70923373  0.04340985     0.15500
H1925       H  0.21790783  0.63012871  0.11527861     0.15200
N1926       N  0.25606079  0.62338771  0.08326660     0.74300
O1927       O  0.23958753  0.74104767  0.07874205    -0.39100
O1928       O  0.19885729  0.70649352  0.05907031    -0.39100
O1929       O  0.23749078  0.59745456  0.07482318    -0.39800
O1930       O  0.27731719  0.62670124  0.09894018    -0.39800
C1931       C  0.43227905  0.78245437  0.08353999    -0.12100
C1932       C  0.45841332  0.77988468  0.08829434     0.04900
C1933       C  0.45896434  0.75413123  0.07851025    -0.07400
C1934       C  0.43471756  0.73300928  0.06274928    -0.08200
C1935       C  0.40969446  0.73697370  0.05611811    -0.02700
C1936       C  0.40834869  0.76170461  0.06758559     0.04100
N1937       N  0.38335776  0.76684654  0.06276776     0.66600
H1938       H  0.43054465  0.80134205  0.09158402     0.15500
H1939       H  0.43624717  0.71401354  0.05471217     0.15200
N1940       N  0.48446471  0.74968945  0.08297900     0.74300
O1941       O  0.36215897  0.75758944  0.08025939    -0.39100
O1942       O  0.38629074  0.78670855  0.04561519    -0.39100
O1943       O  0.98896823  0.74113190  0.09330690    -0.39800
O1944       O  0.50587303  0.75978505  0.06561650    -0.39800
C1945       C  0.05744854  0.75816966  0.44086559    -0.12100
C1946       C  0.08598046  0.75951326  0.44262560     0.04900
C1947       C  0.09086391  0.73870739  0.42729263    -0.07400
C1948       C  0.06714197  0.71642354  0.41226672    -0.08200
C1949       C  0.03843714  0.71441190  0.41127692    -0.02700
C1950       C  0.03373310  0.73583843  0.42549954     0.04100
N1951       N  0.00457617  0.73405196  0.42627462     0.66600
H1952       H  0.05295813  0.77369297  0.45240994     0.15500
H1953       H  0.07122254  0.70029489  0.40147092     0.15200
N1954       N  0.11959274  0.73948433  0.42675450     0.74300
O1955       O  0.98526369  0.71727075  0.44389813    -0.39100
O1956       O  0.50035153  0.75106876  0.41831784    -0.39100
O1957       O  0.12291818  0.72016009  0.44030275    -0.39800
O1958       O  0.13856017  0.75430371  0.40810938    -0.39800
C1959       C  0.06950940  0.72631764  0.05058807    -0.12100
C1960       C  0.08381119  0.75664246  0.05807034     0.04900
C1961       C  0.07475368  0.76492705  0.08252106    -0.07400
C1962       C  0.05266104  0.74254102  0.09965093    -0.08200
C1963       C  0.03924522  0.71197980  0.09247640    -0.02700
C1964       C  0.04719683  0.70418251  0.06718993     0.04100
N1965       N  0.03175819  0.67401643  0.05731937     0.66600
H1966       H  0.07526631  0.71971395  0.03128582     0.15500
H1967       H  0.04670171  0.74894755  0.11893920     0.15200
N1968       N  0.08868936  0.79567538  0.09072602     0.74300
O1969       O  0.00749483  0.66523303  0.04398435    -0.39100
O1970       O  0.04597911  0.65947512  0.05554801    -0.39100
O1971       O  0.07589831  0.81102530  0.08532460    -0.39800
O1972       O  0.11561090  0.80858977  0.09948748    -0.39800
C1973       C  0.19279939  0.93984218  0.44165906    -0.12100
C1974       C  0.16910779  0.91013970  0.43823796     0.04900
C1975       C  0.14768928  0.90450080  0.41734164    -0.07400
C1976       C  0.14940274  0.92840863  0.40158863    -0.08200
C1977       C  0.17223788  0.95821219  0.40601733    -0.02700
C1978       C  0.19431549  0.96379098  0.42616631     0.04100
N1979       N  0.21662278  0.99371291  0.43319231     0.66600
H1980       H  0.20932443  0.94496184  0.45778271     0.15500
H1981       H  0.13242454  0.92367378  0.38597206     0.15200
N1982       N  0.12435908  0.87470639  0.41144997     0.74300
O1983       O  0.20858817  0.00958074  0.44700061    -0.39100
O1984       O  0.24432983  0.00077892  0.43257462    -0.39100
O1985       O  0.09722210  0.86695250  0.41777541    -0.39800
O1986       O  0.12967667  0.85927663  0.39435319    -0.39800
C1987       C  0.25034665  0.85183128  0.41806475    -0.12100
C1988       C  0.23378136  0.82607874  0.43446594     0.04900
C1989       C  0.23728884  0.80058393  0.42935380    -0.07400
C1990       C  0.25887176  0.80239356  0.41002750    -0.08200
C1991       C  0.27708266  0.82906664  0.39533596    -0.02700
C1992       C  0.27152030  0.85345521  0.39856866     0.04100
N1993       N  0.28648837  0.87981896  0.38175822     0.66600
H1994       H  0.24716936  0.87122666  0.42047992     0.15500
H1995       H  0.26237158  0.78320945  0.40754566     0.15200
N1996       N  0.22015442  0.77304840  0.44417331     0.74300
O1997       O  0.27593522  0.87969194  0.35826986    -0.39100
O1998       O  0.30388818  0.90468236  0.39284600    -0.39100
O1999       O  0.19775742  0.75147197  0.43272817    -0.39800
O2000       O  0.23152646  0.76798077  0.46521139    -0.39800
C2001       C  0.18762146  0.91658302  0.07905258    -0.12100
C2002       C  0.16837867  0.90812214  0.05618886     0.04900
C2003       C  0.15113936  0.92270882  0.05145322    -0.07400
C2004       C  0.15247851  0.94420815  0.07002993    -0.08200
C2005       C  0.17107250  0.95210166  0.09339415    -0.02700
C2006       C  0.18901059  0.93821129  0.09758606     0.04100
N2007       N  0.20806677  0.94492796  0.12095914     0.66600
H2008       H  0.20123943  0.90587121  0.08296542     0.15500
H2009       H  0.13898165  0.95500853  0.06592846     0.15200
N2010       N  0.13320112  0.91703320  0.02726726     0.74300
O2011       O  0.19733032  0.92983215  0.14272214    -0.39100
O2012       O  0.23642933  0.95915143  0.11741425    -0.39100
O2013       O  0.10471777  0.90086983  0.02888273    -0.39800
O2014       O  0.14488443  0.93302905  0.00611682    -0.39800
C2015       C  0.26661567  0.83524132  0.04978332    -0.12100
C2016       C  0.23698331  0.82207104  0.06017271     0.04900
C2017       C  0.23019375  0.80624153  0.08538274    -0.07400
C2018       C  0.25372295  0.80575721  0.10040552    -0.08200
C2019       C  0.28371948  0.81995730  0.09018312    -0.02700
C2020       C  0.28969657  0.83365413  0.06396658     0.04100
N2021       N  0.31839793  0.84426581  0.05042750     0.66600
H2022       H  0.27162982  0.84566823  0.02959857     0.15500
H2023       H  0.24865342  0.79491593  0.12038987     0.15200
N2024       N  0.19999291  0.79138741  0.09636343     0.74300
O2025       O  0.32812267  0.82608144  0.04595901    -0.39100
O2026       O  0.32934341  0.86837734  0.03667282    -0.39100
O2027       O  0.18551431  0.76306038  0.09748082    -0.39800
O2028       O  0.19054701  0.80619886  0.11001847    -0.39800
Fe2029     Fe  0.20502092  0.86891160  0.49667409     1.65800
Fe2030     Fe  0.12678527  0.83023762  0.99977548     1.73200
Fe2031     Fe  0.16345433  0.78932737  0.00345623     1.54400
O2032       O  0.20213333  0.80313952  0.97878657    -0.81500
O2033       O  0.11214891  0.81028456  0.53477215    -0.79800
O2034       O  0.21809648  0.85106297  0.96858767    -0.84000
O2035       O  0.22485140  0.85143398  0.52277227    -0.78900
O2036       O  0.13783779  0.77471129  0.96868138    -0.80700
O2037       O  0.14772700  0.87560538  0.52340266    -0.83400
C2038       C  0.21709165  0.82698151  0.53561021     0.97400
C2039       C  0.21853437  0.82669432  0.96464351     1.04800
O2040       O  0.16438557  0.82818845  0.00176635    -1.12400
O2041       O  0.14077434  0.85664897  0.96474418    -0.74800
O2042       O  0.18917801  0.88744460  0.97448606    -0.78300
O2043       O  0.19181967  0.80355285  0.53181028    -0.79000
C2044       C  0.16549671  0.88077701  0.96044711     0.96300
O2045       O  0.19624702  0.88841504  0.53006014    -0.77000
O2046       O  0.10587797  0.79270445  0.97482232    -0.82200
C2047       C  0.11213316  0.78595835  0.54106605     0.98900
C2048       C  0.11360928  0.77520760  0.96301818     1.04800
O2049       O  0.12745020  0.77665337  0.52754445    -0.77800
C2050       C  0.17343188  0.89205432  0.53446581     1.03100
Fe2051     Fe  0.36931948  0.66158098  0.99760575     1.65800
Fe2052     Fe  0.29567370  0.63289501  0.50416393     1.73200
Fe2053     Fe  0.33526237  0.70869800  0.50256674     1.54400
O2054       O  0.36412844  0.72381839  0.53520248    -0.81500
O2055       O  0.27279794  0.64329100  0.97078316    -0.79800
O2056       O  0.39544708  0.70571629  0.52641634    -0.84000
O2057       O  0.38782369  0.69074934  0.96408965    -0.78900
O2058       O  0.29949609  0.69469677  0.53006602    -0.80700
O2059       O  0.30255362  0.60769486  0.96659036    -0.83400
C2060       C  0.38704907  0.71469787  0.95812929     0.97400
C2061       C  0.38874231  0.72347957  0.53909457     1.04800
O2062       O  0.33458055  0.67005157  0.50257189    -1.12400
O2063       O  0.31180058  0.61116768  0.52921395    -0.74800
O2064       O  0.36107582  0.64123516  0.53614762    -0.78300
O2065       O  0.36831782  0.72144255  0.96911653    -0.79000
C2066       C  0.33626122  0.61752412  0.54168634     0.96300
O2067       O  0.35232942  0.62534550  0.97115410    -0.77000
O2068       O  0.28255517  0.64631913  0.53914287    -0.82200
C2069       C  0.27907074  0.66827536  0.95993106     0.98900
C2070       C  0.28326032  0.67105795  0.54403780     1.04800
O2071       O  0.30272632  0.69269690  0.96581842    -0.77800
C2072       C  0.32684310  0.60730861  0.96065088     1.03100
C2073       C  0.47267156  0.00216352  0.63963458     0.02400
C2074       C  0.50463963  0.52547351  0.62998104     0.02400
C2075       C  0.03090666  0.52672344  0.63210449     0.02400
C2076       C  0.03241424  0.99830581  0.62230881     0.02400
C2077       C  0.49775590  0.97168834  0.63264346     0.02400
C2078       C  0.47084038  0.97350714  0.63729560     0.02400
C2079       C  0.30793124  0.98279383  0.64513568     0.80400
N2080       N  0.33490622  0.98308469  0.64646716    -0.77900
C2081       C  0.35946198  0.00419507  0.63273806     0.82800
N2082       N  0.36048759  0.52194527  0.60960527    -0.77900
C2083       C  0.33397065  0.52283725  0.60989088     0.82900
N2084       N  0.30553707  0.00405026  0.62981956    -0.79600
C2085       C  0.19319914  0.51615280  0.64590736     0.80400
N2086       N  0.16555522  0.51468851  0.64666333    -0.77900
C2087       C  0.14851774  0.00146824  0.62735887     0.82800
N2088       N  0.15300933  0.98342193  0.60995720    -0.77900
C2089       C  0.17935191  0.98251224  0.60959207     0.82900
N2090       N  0.20217049  0.00064844  0.62696290    -0.79600
C2091       C  0.19434635  0.66892235  0.61933211     0.80400
N2092       N  0.19563756  0.69235187  0.63366961    -0.77900
C2093       C  0.17176180  0.68809752  0.64985088     0.82800
N2094       N  0.14661196  0.66046402  0.65099838    -0.77900
C2095       C  0.14515552  0.63724048  0.63639951     0.82900
N2096       N  0.16920619  0.64159090  0.62083389    -0.79600
C2097       C  0.48902993  0.67034335  0.65128133     0.80400
N2098       N  0.51039466  0.69427974  0.63651751    -0.77900
C2099       C  0.03231029  0.69585956  0.62040188     0.82800
N2100       N  0.03317827  0.66957809  0.62133225    -0.77900
C2101       C  0.51237973  0.64195670  0.63818513     0.82900
N2102       N  0.49050556  0.64448573  0.65210569    -0.79600
C2103       C  0.31151256  0.82885323  0.60379736     0.80400
N2104       N  0.30900456  0.80561503  0.61973570    -0.77900
C2105       C  0.33149122  0.81017293  0.63777014     0.82800
N2106       N  0.35570626  0.83806484  0.64006210    -0.77900
C2107       C  0.35838171  0.86143055  0.62473822     0.82900
N2108       N  0.33622716  0.85663127  0.60645990    -0.79600
C2109       C  0.01790739  0.82173593  0.64168809     0.80400
N2110       N  0.02079233  0.84961899  0.64090833    -0.77900
C2111       C  0.50030381  0.85910192  0.63031505     0.82800
N2112       N  0.48072303  0.83726267  0.61345552    -0.77900
C2113       C  0.47934932  0.81008476  0.61202204     0.82900
N2114       N  0.49853986  0.80484607  0.62768986    -0.79600
Fe2115     Fe  0.33728430  0.63048469  0.75123502     1.65800
Fe2116     Fe  0.29442243  0.66508662  0.74738140     1.73200
Fe2117     Fe  0.37072530  0.70679732  0.75319714     1.54400
O2118       O  0.39076729  0.69161373  0.78146894    -0.81500
O2119       O  0.30776041  0.69440969  0.71403691    -0.79800
O2120       O  0.36132687  0.64245034  0.78743235    -0.84000
O2121       O  0.37702483  0.64967855  0.72850273    -0.78900
O2122       O  0.35283362  0.71931695  0.78550401    -0.80700
O2123       O  0.27910092  0.62927893  0.72072598    -0.83400
C2124       C  0.39468609  0.67464694  0.71689489     0.97400
C2125       C  0.38410888  0.66721584  0.79399556     1.04800
O2126       O  0.33416739  0.66748747  0.75036938    -1.12400
O2127       O  0.27738563  0.63564508  0.78056827    -0.74800
O2128       O  0.29793207  0.60615822  0.77432108    -0.78300
O2129       O  0.39264503  0.69815819  0.72121370    -0.79000
C2130       C  0.27871553  0.61184978  0.78591386     0.96300
O2131       O  0.31328998  0.61410948  0.71514572    -0.77000
O2132       O  0.30438298  0.70069020  0.77392073    -0.82200
C2133       C  0.33139775  0.72000658  0.71153317     0.98900
C2134       C  0.32726290  0.71826107  0.78816627     1.04800
O2135       O  0.35520014  0.72743279  0.72563073    -0.77800
C2136       C  0.28798584  0.61237476  0.70948622     1.03100
Fe2137     Fe  0.12869740  0.79450295  0.75486325     1.65800
Fe2138     Fe  0.20598928  0.83760155  0.75141587     1.73200
Fe2139     Fe  0.16125875  0.87105545  0.75192310     1.54400
O2140       O  0.12949920  0.85417312  0.72063545    -0.81500
O2141       O  0.22414444  0.87342527  0.77847054    -0.79800
O2142       O  0.10630934  0.80422212  0.72505775    -0.84000
O2143       O  0.10843208  0.80641594  0.78548827    -0.78900
O2144       O  0.19474829  0.89210004  0.72247809    -0.80700
O2145       O  0.19721897  0.80832441  0.78434764    -0.83400
C2146       C  0.10907332  0.83065201  0.79231960     0.97400
C2147       C  0.10939009  0.82788801  0.71374244     1.04800
O2148       O  0.16534602  0.83441548  0.75284992    -1.12400
O2149       O  0.19330719  0.80254718  0.72394797    -0.74800
O2150       O  0.14300597  0.77658520  0.72462336    -0.78300
O2151       O  0.12727366  0.85574544  0.78140726    -0.79000
C2152       C  0.16835912  0.78086511  0.71573378     0.96300
O2153       O  0.14694742  0.77963477  0.78439095    -0.77000
O2154       O  0.22016544  0.86690223  0.71819977    -0.82200
C2155       C  0.21720648  0.89218592  0.78889223     0.98900
C2156       C  0.21529578  0.88817943  0.71126859     1.04800
O2157       O  0.19272992  0.89228278  0.78300057    -0.77800
C2158       C  0.17296570  0.78614425  0.79348725     1.03100
C2159       C  0.02443671  0.49825179  0.85931739     0.02400
C2160       C  0.99925729  0.97537774  0.86340580     0.02400
C2161       C  0.47366240  0.97318478  0.86654190     0.02400
C2162       C  0.47521607  0.50430204  0.85329277     0.02400
C2163       C  0.99772744  0.52753403  0.85809540     0.02400
C2164       C  0.02534217  0.52651434  0.85823644     0.02400
C2165       C  0.19148620  0.52701332  0.86370881     0.80400
N2166       N  0.16391750  0.52535308  0.86213375    -0.77900
C2167       C  0.13950622  0.50279020  0.87475903     0.82800
N2168       N  0.14172565  0.97487654  0.88910707    -0.77900
C2169       C  0.16868679  0.97482598  0.89020244     0.82900
N2170       N  0.19438525  0.50526855  0.87773878    -0.79600
C2171       C  0.31164694  0.98559954  0.85540540     0.80400
N2172       N  0.30653610  0.50222942  0.86787593    -0.77900
C2173       C  0.32975151  0.52346015  0.88309004     0.82800
N2174       N  0.35790376  0.52617518  0.88121304    -0.77900
C2175       C  0.36321123  0.50840220  0.86417096     0.82900
N2176       N  0.33806740  0.98494931  0.85681403    -0.79600
C2177       C  0.47594924  0.66811535  0.86472937     0.80400
N2178       N  0.47837964  0.64289967  0.86200885    -0.77900
C2179       C  0.50082763  0.64024106  0.87465002     0.82800
N2180       N  0.02431225  0.66373304  0.88492702    -0.77900
C2181       C  0.02586404  0.69098393  0.88695128     0.82900
N2182       N  0.49631877  0.69107100  0.88047145    -0.79600
C2183       C  0.18865227  0.66557381  0.88603442     0.80400
N2184       N  0.19149797  0.69070480  0.87345435    -0.77900
C2185       C  0.16786082  0.68948227  0.85900072     0.82800
N2186       N  0.14183262  0.66288996  0.85671420    -0.77900
C2187       C  0.13871717  0.63789312  0.86933109     0.82900
N2188       N  0.16202018  0.63933990  0.88421517    -0.79600
C2189       C  0.01683085  0.83022046  0.86235199     0.80400
N2190       N  0.01799467  0.85723655  0.86140049    -0.77900
C2191       C  0.99696551  0.86181039  0.87437886     0.82800
N2192       N  0.48318520  0.83753755  0.89291270    -0.77900
C2193       C  0.48243603  0.81048559  0.89370441     0.82900
N2194       N  0.99427456  0.80734311  0.87681791    -0.79600
C2195       C  0.30704489  0.83324358  0.88491031     0.80400
N2196       N  0.30499625  0.80886564  0.87168610    -0.77900
C2197       C  0.32944596  0.81069889  0.85814231     0.82800
N2198       N  0.35599454  0.83705497  0.85787317    -0.77900
C2199       C  0.35837695  0.86161854  0.87097809     0.82900
N2200       N  0.33376075  0.85953143  0.88446216    -0.79600
C2201       C  0.50040428  0.57416439  0.83944520    -0.12100
C2202       C  0.99844093  0.55666249  0.86190756     0.04900
C2203       C  0.99548471  0.56711696  0.88803624    -0.07400
C2204       C  0.99774610  0.59545874  0.89021629    -0.08200
C2205       C  0.50434200  0.61350303  0.86974605    -0.02700
C2206       C  0.49959741  0.60082219  0.84341091     0.04100
N2207       N  0.49567155  0.61575093  0.82013783     0.66600
H2208       H  0.49728957  0.56511984  0.81915414     0.15500
H2209       H  0.99536044  0.60347044  0.91018799     0.15200
N2210       N  0.98914228  0.54915423  0.91235182     0.74300
O2211       O  0.51740238  0.64043136  0.81187819    -0.39100
O2212       O  0.47007214  0.60517258  0.80877083    -0.39100
O2213       O  0.96327648  0.53890093  0.92339966    -0.39800
O2214       O  0.01099836  0.55259224  0.92721936    -0.39800
C2215       C  0.06671266  0.56592017  0.88673318    -0.12100
C2216       C  0.05498816  0.55512959  0.86047655     0.04900
C2217       C  0.07132049  0.57219575  0.83720453    -0.07400
C2218       C  0.09838329  0.59922795  0.84069425    -0.08200
C2219       C  0.11002340  0.60952933  0.86685134    -0.02700
C2220       C  0.09404251  0.59276269  0.89007867     0.04100
N2221       N  0.10469909  0.60341502  0.91714176     0.66600
H2222       H  0.05464248  0.55338913  0.90478727     0.15500
H2223       H  0.11076058  0.61201375  0.82270707     0.15200
N2224       N  0.06189761  0.56223729  0.80979118     0.74300
O2225       O  0.10449570  0.62655989  0.92596057    -0.39100
O2226       O  0.11761885  0.59191257  0.93089243    -0.39100
O2227       O  0.04899977  0.57399623  0.79642421    -0.39800
O2228       O  0.07696012  0.55281222  0.79643763    -0.39800
C2229       C  0.40749906  0.89579736  0.84785505    -0.12100
C2230       C  0.38759880  0.89032691  0.87008678     0.04900
C2231       C  0.39632894  0.91225494  0.89083184    -0.07400
C2232       C  0.42436727  0.93854199  0.88906844    -0.08200
C2233       C  0.44406350  0.94436065  0.86665601    -0.02700
C2234       C  0.43535227  0.92246860  0.84572031     0.04100
N2235       N  0.45407539  0.92653623  0.82212950     0.66600
H2236       H  0.40113610  0.87943098  0.83154413     0.15500
H2237       H  0.43112466  0.95439679  0.90583061     0.15200
N2238       N  0.37768066  0.90797006  0.91441064     0.74300
O2239       O  0.46041820  0.90616767  0.81612211    -0.39100
O2240       O  0.45620401  0.94477112  0.80356625    -0.39100
O2241       O  0.38163256  0.89622200  0.93574693    -0.39800
O2242       O  0.36400032  0.92301112  0.91640709    -0.39800
C2243       C  0.43606396  0.00893895  0.89324464    -0.12100
C2244       C  0.44765624  0.50805257  0.85517520     0.04900
C2245       C  0.43037436  0.50698239  0.83198767    -0.07400
C2246       C  0.40335368  0.50789307  0.83562293    -0.08200
C2247       C  0.39351689  0.51097927  0.86171232    -0.02700
C2248       C  0.40880477  0.00964087  0.89579939     0.04100
N2249       N  0.40049093  0.01597779  0.92202947     0.66600
H2250       H  0.45032989  0.01347427  0.91108887     0.15500
H2251       H  0.38992239  0.50630531  0.81773286     0.15200
N2252       N  0.43957986  0.50527689  0.80454782     0.74300
O2253       O  0.38512429  0.99459135  0.93843996    -0.39100
O2254       O  0.41421072  0.04249970  0.93101443    -0.39100
O2255       O  0.45723354  0.52942628  0.79223372    -0.39800
O2256       O  0.42172632  0.48321456  0.79016786    -0.39800
C2257       C  0.09561986  0.49192017  0.84573597    -0.12100
C2258       C  0.10967034  0.50023111  0.87131153     0.04900
C2259       C  0.09075336  0.99138436  0.89488892    -0.07400
C2260       C  0.06418359  0.99338134  0.89137051    -0.08200
C2261       C  0.05311947  0.49707550  0.86298553    -0.02700
C2262       C  0.06721672  0.48969868  0.84141578     0.04100
N2263       N  0.05303395  0.47894638  0.81539621     0.66600
H2264       H  0.10663550  0.48675810  0.82908390     0.15500
H2265       H  0.05010891  0.99078316  0.90905434     0.15200
N2266       N  0.09903730  0.98669906  0.92177017     0.74300
O2267       O  0.04259957  0.45145753  0.81026603    -0.39100
O2268       O  0.06158792  0.49692542  0.79533839    -0.39100
O2269       O  0.12079350  0.00813209  0.93402800    -0.39800
O2270       O  0.08817786  0.96034032  0.93117159    -0.39800
C2271       C  0.00949077  0.93599208  0.84601524    -0.12100
C2272       C  0.99835940  0.94615032  0.86739500     0.04900
C2273       C  0.49178890  0.92587259  0.89638034    -0.07400
C2274       C  0.49231018  0.89862915  0.89734665    -0.08200
C2275       C  0.99806230  0.89106390  0.87195749    -0.02700
C2276       C  0.00992333  0.90904822  0.84820494     0.04100
N2277       N  0.02150510  0.89998697  0.82544615     0.66600
H2278       H  0.01700751  0.94835725  0.82760795     0.15500
H2279       H  0.48463524  0.88515578  0.91580157     0.15200
N2280       N  0.48282628  0.93549482  0.92054192     0.74300
O2281       O  0.00363596  0.88425182  0.80672964    -0.39100
O2282       O  0.04979603  0.91297127  0.82112536    -0.39100
O2283       O  0.50309720  0.95229028  0.93718367    -0.39800
O2284       O  0.45595250  0.92004418  0.92931265    -0.39800
C2285       C  0.14621548  0.74365842  0.82589923    -0.12100
C2286       C  0.17399693  0.76536712  0.81445452     0.04900
C2287       C  0.20056961  0.76380599  0.82081334    -0.07400
C2288       C  0.19836980  0.73968933  0.83656442    -0.08200
C2289       C  0.17005977  0.71667829  0.84578898    -0.02700
C2290       C  0.14390482  0.71940054  0.84096607     0.04100
N2291       N  0.11452116  0.69749212  0.85070304     0.66600
H2292       H  0.12552474  0.74458740  0.82215023     0.15500
H2293       H  0.21875256  0.73818879  0.84029299     0.15200
N2294       N  0.22968771  0.78539687  0.81037179     0.74300
O2295       O  0.10463924  0.70204989  0.87298894    -0.39100
O2296       O  0.09609959  0.67823236  0.83421338    -0.39100
O2297       O  0.24859889  0.80490005  0.82639758    -0.39800
O2298       O  0.23888279  0.78043173  0.78785952    -0.39800
C2299       C  0.05761246  0.80347792  0.81387528    -0.12100
C2300       C  0.08654759  0.82920433  0.81278060     0.04900
C2301       C  0.09241645  0.85355258  0.83004845    -0.07400
C2302       C  0.06984480  0.85200293  0.84757650    -0.08200
C2303       C  0.04067412  0.82708064  0.84771862    -0.02700
C2304       C  0.03455309  0.80235180  0.83094632     0.04100
N2305       N  0.00462850  0.77717047  0.82929482     0.66600
H2306       H  0.05242832  0.78475010  0.80043989     0.15500
H2307       H  0.07493312  0.87117108  0.86047833     0.15200
N2308       N  0.12125512  0.88003616  0.83065682     0.74300
O2309       O  0.98811962  0.77482594  0.80903249    -0.39100
O2310       O  0.99680955  0.75498672  0.84518013    -0.39100
O2311       O  0.12571835  0.90181174  0.81528877    -0.39800
O2312       O  0.13661399  0.88520424  0.85226848    -0.39800
C2313       C  0.25702811  0.95519593  0.84189908    -0.12100
C2314       C  0.28752022  0.96361445  0.83696617     0.04900
C2315       C  0.29424351  0.94848065  0.81591163    -0.07400
C2316       C  0.27087120  0.92527869  0.80130543    -0.08200
C2317       C  0.24030077  0.91628747  0.80660513    -0.02700
C2318       C  0.23354790  0.93169907  0.82720888     0.04100
N2319       N  0.20320986  0.92190978  0.83588116     0.66600
H2320       H  0.25114396  0.96595140  0.85807379     0.15500
H2321       H  0.27696392  0.91455913  0.78518177     0.15200
N2322       N  0.32472435  0.95666276  0.80833604     0.74300
O2323       O  0.19475235  0.90780590  0.85839444    -0.39100
O2324       O  0.19020324  0.93613219  0.82740850    -0.39100
O2325       O  0.33514022  0.93947019  0.81480073    -0.39800
O2326       O  0.33779368  0.97608039  0.78967816    -0.39800
C2327       C  0.42315569  0.64367869  0.84806279    -0.12100
C2328       C  0.45133324  0.66989865  0.84998296     0.04900
C2329       C  0.45575762  0.69590671  0.83585056    -0.07400
C2330       C  0.43255371  0.69483816  0.81948027    -0.08200
C2331       C  0.40510652  0.66797866  0.81578457    -0.02700
C2332       C  0.40026589  0.64232779  0.83104869     0.04100
N2333       N  0.37253395  0.61456898  0.82962719     0.66600
H2334       H  0.41917118  0.62360918  0.85916897     0.15500
H2335       H  0.43713274  0.71488673  0.80805594     0.15200
N2336       N  0.48457474  0.72262750  0.83514311     0.74300
O2337       O  0.37045268  0.59494100  0.81273317    -0.39100
O2338       O  0.35499847  0.60648525  0.85018703    -0.39100
O2339       O  0.50501581  0.72359483  0.81944955    -0.39800
O2340       O  0.48616083  0.74696397  0.84276031    -0.39800
C2341       C  0.24318893  0.59975863  0.82587516    -0.12100
C2342       C  0.25728156  0.59001962  0.80657203     0.04900
C2343       C  0.25051586  0.55955822  0.80751515    -0.07400
C2344       C  0.23056383  0.54001559  0.82754804    -0.08200
C2345       C  0.21640594  0.54975808  0.84654424    -0.02700
C2346       C  0.22271013  0.57995681  0.84550848     0.04100
N2347       N  0.20837758  0.59087731  0.86412951     0.66600
H2348       H  0.24791033  0.62288277  0.82569580     0.15500
H2349       H  0.22491077  0.51660380  0.82732803     0.15200
N2350       N  0.26199927  0.54739393  0.78727558     0.74300
O2351       O  0.22158509  0.60315892  0.88619136    -0.39100
O2352       O  0.18672533  0.59452638  0.85580996    -0.39100
O2353       O  0.28183565  0.54033680  0.79402679    -0.39800
O2354       O  0.24715953  0.53684213  0.76547355    -0.39800
C2355       C  0.30436241  0.77162890  0.82251397    -0.12100
C2356       C  0.32689837  0.78476700  0.84257178     0.04900
C2357       C  0.34761743  0.77403308  0.84625116    -0.07400
C2358       C  0.34640025  0.75147393  0.82911324    -0.08200
C2359       C  0.32478566  0.73915332  0.80803761    -0.02700
C2360       C  0.30310348  0.74906779  0.80525029     0.04100
N2361       N  0.28063452  0.73775817  0.78418603     0.66600
H2362       H  0.28831347  0.77966733  0.81956326     0.15500
H2363       H  0.36284139  0.74390860  0.83210680     0.15200
N2364       N  0.36959659  0.78527085  0.86772527     0.74300
O2365       O  0.25427259  0.71687877  0.78989731    -0.39100
O2366       O  0.28479310  0.75305082  0.76257343    -0.39100
O2367       O  0.36420979  0.77049139  0.88983518    -0.39800
O2368       O  0.39644435  0.80531018  0.86229582    -0.39800
C2369       C  0.06183544  0.82750234  0.70523168    -0.12100
C2370       C  0.08585039  0.82449463  0.69441726     0.04900
C2371       C  0.08494533  0.81567957  0.66685987    -0.07400
C2372       C  0.06063161  0.81175645  0.65015761    -0.08200
C2373       C  0.03745267  0.81660593  0.66072466    -0.02700
C2374       C  0.03768530  0.82351133  0.68874736     0.04100
N2375       N  0.01351425  0.82656517  0.70087418     0.66600
H2376       H  0.06178097  0.83290788  0.72673472     0.15500
H2377       H  0.06079038  0.80673365  0.62869749     0.15200
N2378       N  0.10915141  0.81230283  0.65519240     0.74300
O2379       O  0.98998227  0.80324444  0.70880827    -0.39100
O2380       O  0.01921964  0.85147016  0.71099353    -0.39100
O2381       O  0.10466452  0.78639073  0.64930857    -0.39800
O2382       O  0.13182305  0.83494230  0.64493648    -0.39800
C2383       C  0.31552574  0.73395609  0.66727479    -0.12100
C2384       C  0.33106243  0.74271002  0.69242288     0.04900
C2385       C  0.34591025  0.77349993  0.69937479    -0.07400
C2386       C  0.34494600  0.79453613  0.68155055    -0.08200
C2387       C  0.32998559  0.78605632  0.65619131    -0.02700
C2388       C  0.31553863  0.75542178  0.64895278     0.04100
N2389       N  0.30204821  0.74593262  0.62261890     0.66600
H2390       H  0.30425279  0.71052073  0.66138894     0.15500
H2391       H  0.35616267  0.81787358  0.68775994     0.15200
N2392       N  0.36164380  0.78391135  0.72480240     0.74300
O2393       O  0.31853739  0.75176577  0.60144924    -0.39100
O2394       O  0.27368629  0.73417009  0.62024669    -0.39100
O2395       O  0.39027884  0.79661475  0.72492227    -0.39800
O2396       O  0.34788788  0.78680188  0.74527207    -0.39800
C2397       C  0.41422090  0.64763019  0.68846698    -0.12100
C2398       C  0.41825565  0.67527000  0.69793111     0.04900
C2399       C  0.44526918  0.70170553  0.69052226    -0.07400
C2400       C  0.46763424  0.69976908  0.67465503    -0.08200
C2401       C  0.46391877  0.67185947  0.66614416    -0.02700
C2402       C  0.43650435  0.64557239  0.67314315     0.04100
N2403       N  0.43062768  0.61628153  0.66521289     0.66600
H2404       H  0.39360993  0.62697462  0.69338704     0.15500
H2405       H  0.48852083  0.72019560  0.66988586     0.15200
N2406       N  0.45130237  0.73048585  0.70016628     0.74300
O2407       O  0.43070791  0.59862184  0.68337412    -0.39100
O2408       O  0.41715464  0.60555467  0.64289172    -0.39100
O2409       O  0.46710054  0.74105427  0.72147597    -0.39800
O2410       O  0.44737282  0.74782359  0.68421740    -0.39800
C2411       C  0.19697927  0.76168778  0.68812704    -0.12100
C2412       C  0.16884774  0.75871369  0.69622750     0.04900
C2413       C  0.14191565  0.73299726  0.68757878    -0.07400
C2414       C  0.14377845  0.71072002  0.67255033    -0.08200
C2415       C  0.17184707  0.71325220  0.66516292    -0.02700
C2416       C  0.19871978  0.73926777  0.67299039     0.04100
N2417       N  0.22800081  0.74251024  0.66757101     0.66600
H2418       H  0.21796996  0.78097619  0.69451540     0.15500
H2419       H  0.12277512  0.69103552  0.66684187     0.15200
N2420       N  0.11231755  0.72840612  0.69435598     0.74300
O2421       O  0.24411693  0.76012704  0.64869647    -0.39100
O2422       O  0.24052838  0.73467404  0.68576373    -0.39100
O2423       O  0.09703603  0.73252603  0.67608336    -0.39800
O2424       O  0.09880661  0.71298222  0.71534290    -0.39800
C2425       C  0.24912055  0.55027769  0.65548496    -0.12100
C2426       C  0.21837189  0.53978283  0.66248872     0.04900
C2427       C  0.21193158  0.55366894  0.68471862    -0.07400
C2428       C  0.23521807  0.57711256  0.69874416    -0.08200
C2429       C  0.26570898  0.58786402  0.69188734    -0.02700
C2430       C  0.27283395  0.57383800  0.67025693     0.04100
N2431       N  0.30363929  0.58352859  0.66257851     0.66600
H2432       H  0.25483394  0.54039215  0.63841021     0.15500
H2433       H  0.22900066  0.58662073  0.71585466     0.15200
N2434       N  0.18175598  0.54445604  0.69388177     0.74300
O2435       O  0.31686007  0.57002352  0.67230073    -0.39100
O2436       O  0.31486700  0.60033104  0.64181955    -0.39100
O2437       O  0.17069044  0.52529413  0.71302216    -0.39800
O2438       O  0.17082465  0.56165660  0.68938703    -0.39800
C2439       C  0.24143405  0.94074782  0.69399320    -0.12100
C2440       C  0.23593702  0.91106026  0.69111232     0.04900
C2441       C  0.25267798  0.90505853  0.67116522    -0.07400
C2442       C  0.27542431  0.92875377  0.65587771    -0.08200
C2443       C  0.28169101  0.95849456  0.65973255    -0.02700
C2444       C  0.26415207  0.96434302  0.67867431     0.04100
N2445       N  0.27005745  0.99425454  0.68358952     0.66600
H2446       H  0.22906077  0.94603710  0.70921666     0.15500
H2447       H  0.28848582  0.92391288  0.64101869     0.15200
N2448       N  0.24663580  0.87512428  0.66577604     0.74300
O2449       O  0.25320372  0.00306125  0.67258121    -0.39100
O2450       O  0.30100671  0.50671481  0.69965009    -0.39100
O2451       O  0.22965167  0.86101906  0.64595000    -0.39800
O2452       O  0.26382823  0.86612314  0.67580898    -0.39800
C2453       C  0.07876846  0.56531781  0.61121524    -0.12100
C2454       C  0.06076658  0.55453042  0.63475356     0.04900
C2455       C  0.07160589  0.57016411  0.65977683    -0.07400
C2456       C  0.09915410  0.59727982  0.65991272    -0.08200
C2457       C  0.11691375  0.60811651  0.63596832    -0.02700
C2458       C  0.10684877  0.59125235  0.61161029     0.04100
N2459       N  0.12432884  0.60052103  0.58679797     0.66600
H2460       H  0.07059832  0.55354634  0.59195389     0.15500
H2461       H  0.10711529  0.60953141  0.67901450     0.15200
N2462       N  0.05603728  0.55836351  0.68531071     0.74300
O2463       O  0.14042778  0.58874589  0.58038655    -0.39100
O2464       O  0.11806129  0.61435274  0.56867951    -0.39100
O2465       O  0.06230230  0.54110259  0.69903261    -0.39800
O2466       O  0.04511857  0.57254163  0.69788633    -0.39800
C2467       C  0.99957558  0.56858155  0.65660197    -0.12100
C2468       C  0.50517485  0.55487095  0.63085888     0.04900
C2469       C  0.51187830  0.57386832  0.60763003    -0.07400
C2470       C  0.51504853  0.60253203  0.61078609    -0.08200
C2471       C  0.51135838  0.61261603  0.63653876    -0.02700
C2472       C  0.00288367  0.59731318  0.65867993     0.04100
N2473       N  0.99876918  0.60720080  0.68501127     0.66600
H2474       H  0.99363908  0.55467468  0.67460087     0.15500
H2475       H  0.51955090  0.61666385  0.59279431     0.15200
N2476       N  0.51454904  0.56442230  0.58059331     0.74300
O2477       O  0.97339742  0.59293658  0.69703730    -0.39100
O2478       O  0.02190774  0.62403268  0.69896044    -0.39100
O2479       O  0.53993017  0.57795915  0.56850533    -0.39800
O2480       O  0.49103814  0.55189751  0.56600124    -0.39800
C2481       C  0.07266901  0.50010272  0.65245310    -0.12100
C2482       C  0.06231916  0.99914245  0.62224464     0.04900
C2483       C  0.07544171  0.99362299  0.59887401    -0.07400
C2484       C  0.10366430  0.99481467  0.60115584    -0.08200
C2485       C  0.11944981  0.00188906  0.62617177    -0.02700
C2486       C  0.09930873  0.49836733  0.65464574     0.04100
N2487       N  0.11040115  0.49782824  0.68151426     0.66600
H2488       H  0.06146110  0.50128878  0.67094443     0.15500
H2489       H  0.11341509  0.99047211  0.58307024     0.15200
N2490       N  0.06052819  0.98610725  0.57289349     0.74300
O2491       O  0.11129068  0.51622881  0.69926840    -0.39100
O2492       O  0.11114846  0.47461802  0.68942683    -0.39100
O2493       O  0.05655843  0.96244114  0.56115034    -0.39800
O2494       O  0.05989360  0.00646788  0.55861406    -0.39800
C2495       C  0.51048114  0.93489443  0.65288983    -0.12100
C2496       C  0.49706142  0.94213903  0.63117318     0.04900
C2497       C  0.99315764  0.92104402  0.59910541    -0.07400
C2498       C  0.99362184  0.89380323  0.60017343    -0.08200
C2499       C  0.50059493  0.88835640  0.63093496    -0.02700
C2500       C  0.51265699  0.90869536  0.65294862     0.04100
N2501       N  0.52566930  0.90267162  0.67642500     0.66600
H2502       H  0.51902664  0.94968437  0.67043456     0.15500
H2503       H  0.98309195  0.87801452  0.58358738     0.15200
N2504       N  0.97914927  0.92667954  0.57599838     0.74300
O2505       O  0.55384108  0.91167407  0.67643198    -0.39100
O2506       O  0.51172716  0.89757278  0.69908662    -0.39100
O2507       O  0.99573371  0.94412533  0.55721168    -0.39800
O2508       O  0.95206727  0.90774250  0.57032434    -0.39800
C2509       C  0.42276203  0.94133890  0.61290507    -0.12100
C2510       C  0.44053752  0.94583333  0.63629385     0.04900
C2511       C  0.42982744  0.92327409  0.65684881    -0.07400
C2512       C  0.40257579  0.89656528  0.65283224    -0.08200
C2513       C  0.38523382  0.89163259  0.62888194    -0.02700
C2514       C  0.39516853  0.91501488  0.60924667     0.04100
N2515       N  0.37895310  0.91189591  0.58445586     0.66600
H2516       H  0.43113331  0.95778537  0.59648111     0.15500
H2517       H  0.39518380  0.87939728  0.66864743     0.15200
N2518       N  0.44627281  0.92642466  0.68163564     0.74300
O2519       O  0.35973045  0.92095892  0.58386081    -0.38300
O2520       O  0.38996026  0.90886028  0.56214536    -0.39100
O2521       O  0.45655923  0.90867645  0.68587362    -0.39800
O2522       O  0.44086351  0.93804218  0.70219578    -0.39800
C2523       C  0.40133459  0.49430915  0.64999794    -0.12100
C2524       C  0.38865873  0.00459049  0.63449353     0.04900
C2525       C  0.40680973  0.00914898  0.61106178    -0.07400
C2526       C  0.43425168  0.00891886  0.61359652    -0.08200
C2527       C  0.44443975  0.00477726  0.63918293    -0.02700
C2528       C  0.42875874  0.49398257  0.65261429     0.04100
N2529       N  0.43635356  0.48714481  0.67889562     0.66600
H2530       H  0.38715374  0.49013968  0.66806441     0.15500
H2531       H  0.44688986  0.01020190  0.59519723     0.15200
N2532       N  0.39692747  0.01251511  0.58442935     0.74300
O2533       O  0.45210669  0.50846568  0.69492553    -0.39100
O2534       O  0.41928843  0.46149941  0.68908868    -0.39100
O2535       O  0.40807988  0.03824784  0.57353594    -0.39800
O2536       O  0.37475653  0.99048412  0.57321818    -0.39800
C2537       C  0.30754502  0.57715648  0.91760633    -0.12100
C2538       C  0.32545798  0.58435330  0.94138262     0.04900
C2539       C  0.34172469  0.56900550  0.94685657    -0.07400
C2540       C  0.34166266  0.54862583  0.92787408    -0.08200
C2541       C  0.32509869  0.54237963  0.90341946    -0.02700
C2542       C  0.30703390  0.55611235  0.89868029     0.04100
N2543       N  0.28847138  0.54936125  0.87481247     0.66600
H2544       H  0.29427171  0.58819685  0.91352038     0.15500
H2545       H  0.35472521  0.53746063  0.93242734     0.15200
N2546       N  0.35724628  0.57270318  0.97226931     0.74300
O2547       O  0.26170210  0.52770702  0.87569389    -0.39100
O2548       O  0.29567871  0.56886516  0.85611260    -0.39100
O2549       O  0.34320109  0.55559381  0.99223323    -0.39800
O2550       O  0.38587847  0.58754531  0.97268464    -0.39800
C2551       C  0.30833081  0.56728885  0.56448338    -0.12100
C2552       C  0.33518315  0.59521299  0.56227925     0.04900
C2553       C  0.36035188  0.59980360  0.57833898    -0.07400
C2554       C  0.35901034  0.57603535  0.59399808    -0.08200
C2555       C  0.33269425  0.54770219  0.59497022    -0.02700
C2556       C  0.30685730  0.54375336  0.58051726     0.04100
N2557       N  0.27956012  0.51547605  0.58004086     0.66600
H2558       H  0.28845907  0.56299716  0.55275078     0.15500
H2559       H  0.37884434  0.57968624  0.60524504     0.15200
N2560       N  0.38736655  0.62834590  0.57933431     0.74300
O2561       O  0.25584626  0.51350243  0.59077724    -0.39100
O2562       O  0.27701125  0.49624707  0.56247876    -0.39100
O2563       O  0.39063330  0.64607558  0.59868034    -0.39800
O2564       O  0.41028685  0.63258483  0.56540227    -0.39800
C2565       C  0.26571273  0.68446266  0.91593378    -0.12100
C2566       C  0.25660115  0.66858245  0.94087644     0.04900
C2567       C  0.22540052  0.65205511  0.94746913    -0.07400
C2568       C  0.20391234  0.65119963  0.92906948    -0.08200
C2569       C  0.21277688  0.66701857  0.90410713    -0.02700
C2570       C  0.24403006  0.68366951  0.89742445     0.04100
N2571       N  0.25401472  0.69838541  0.87140998     0.66600
H2572       H  0.28962165  0.69687292  0.91051790     0.15500
H2573       H  0.18007755  0.63869055  0.93474120     0.15200
N2574       N  0.21527290  0.63697945  0.97337925     0.74300
O2575       O  0.26304659  0.72615761  0.86957661    -0.39100
O2576       O  0.26046628  0.68558993  0.85244360    -0.39100
O2577       O  0.22331277  0.66131216  0.50348926    -0.39800
O2578       O  0.20313940  0.60873506  0.97467709    -0.39800
C2579       C  0.42233987  0.76792778  0.94832319    -0.12100
C2580       C  0.41075076  0.73794686  0.94019558     0.04900
C2581       C  0.42314615  0.73177378  0.91668256    -0.07400
C2582       C  0.44659914  0.75559238  0.90182289    -0.08200
C2583       C  0.45844501  0.78560766  0.91030445    -0.02700
C2584       C  0.44596599  0.79151244  0.93398794     0.04100
N2585       N  0.45779000  0.82118331  0.94469712     0.66600
H2586       H  0.41366360  0.77317960  0.96664744     0.15500
H2587       H  0.45525167  0.75057478  0.88351702     0.15200
N2588       N  0.41152099  0.70178156  0.90694718     0.74300
O2589       O  0.44316023  0.83510916  0.94106204    -0.39100
O2590       O  0.94130768  0.83650609  0.94264030    -0.39100
O2591       O  0.39285947  0.69280033  0.88737529    -0.39800
O2592       O  0.42518622  0.68741868  0.91298073    -0.39800
C2593       C  0.25311170  0.69352074  0.56269359    -0.12100
C2594       C  0.26321695  0.67235812  0.56562991     0.04900
C2595       C  0.25201950  0.65170875  0.58778235    -0.07400
C2596       C  0.23043601  0.65193277  0.60570184    -0.08200
C2597       C  0.21964580  0.67231485  0.60202380    -0.02700
C2598       C  0.23107967  0.69328515  0.58034723     0.04100
N2599       N  0.21905258  0.71298031  0.57481990     0.66600
H2600       H  0.26103197  0.70928952  0.54565538     0.15500
H2601       H  0.22160755  0.63567870  0.62235773     0.15200
N2602       N  0.26217225  0.63036212  0.59246233     0.74300
O2603       O  0.23471159  0.74056694  0.58021381    -0.39100
O2604       O  0.19630078  0.70423212  0.55935333    -0.39100
O2605       O  0.24477000  0.60309108  0.58682375    -0.39800
O2606       O  0.28445891  0.63721760  0.60812737    -0.39800
C2607       C  0.43453231  0.79306183  0.58184045    -0.12100
C2608       C  0.45597874  0.78670921  0.59413942     0.04900
C2609       C  0.45423714  0.75870031  0.58867430    -0.07400
C2610       C  0.43179785  0.73823991  0.57115708    -0.08200
C2611       C  0.41081980  0.74496900  0.55870722    -0.02700
C2612       C  0.41235708  0.77280346  0.56424547     0.04100
N2613       N  0.39277049  0.78178128  0.55105303     0.66600
H2614       H  0.43502620  0.81424446  0.58539886     0.15500
H2615       H  0.43107964  0.71703400  0.56702822     0.15200
N2616       N  0.47594898  0.75110538  0.59915372     0.74300
O2617       O  0.37086858  0.78090662  0.56441247    -0.39100
O2618       O  0.40166788  0.79726729  0.52928672    -0.39100
O2619       O  0.94571184  0.73120927  0.63149192    -0.39800
O2620       O  0.49570165  0.75175735  0.58283210    -0.39800
C2621       C  0.07634852  0.76346345  0.92580897    -0.12100
C2622       C  0.09308532  0.75434174  0.94226914     0.04900
C2623       C  0.08874204  0.72502926  0.93943167    -0.07400
C2624       C  0.06676447  0.70510233  0.92143499    -0.08200
C2625       C  0.04943222  0.71389282  0.90508172    -0.02700
C2626       C  0.05515030  0.74383705  0.90699140     0.04100
N2627       N  0.04109277  0.75545963  0.88913530     0.66600
H2628       H  0.08007608  0.78621677  0.92723096     0.15500
H2629       H  0.06338248  0.68246800  0.92048633     0.15200
N2630       N  0.10557800  0.71462835  0.95531954     0.74300
O2631       O  0.01994579  0.75943259  0.89842853    -0.39100
O2632       O  0.50196181  0.74943089  0.91693323    -0.39100
O2633       O  0.09344172  0.69865400  0.97638203    -0.39800
O2634       O  0.12864968  0.71498337  0.94476757    -0.39800
C2635       C  0.10065124  0.74460607  0.57436303    -0.12100
C2636       C  0.09379388  0.76659981  0.56467176     0.04900
C2637       C  0.06878616  0.76772532  0.57653198    -0.07400
C2638       C  0.05001469  0.74560241  0.59581692    -0.08200
C2639       C  0.05525896  0.72176752  0.60339566    -0.02700
C2640       C  0.08196093  0.72250189  0.59324258     0.04100
N2641       N  0.09108222  0.70137350  0.60208784     0.66600
H2642       H  0.12052097  0.74393909  0.56672028     0.15500
H2643       H  0.03087780  0.74677865  0.60432687     0.15200
N2644       N  0.06121074  0.79014676  0.56824284     0.74300
O2645       O  0.08464620  0.67866546  0.58748005    -0.39100
O2646       O  0.11212566  0.70959251  0.61941989    -0.39100
O2647       O  0.04332761  0.78506287  0.54842376    -0.39800
O2648       O  0.07596901  0.81642274  0.57764653    -0.39800
C2649       C  0.19440056  0.92960935  0.93516211    -0.12100
C2650       C  0.16683796  0.90281919  0.93936524     0.04900
C2651       C  0.14087493  0.89922379  0.92512323    -0.07400
C2652       C  0.14269512  0.92250185  0.90846889    -0.08200
C2653       C  0.16979307  0.95001176  0.90563909    -0.02700
C2654       C  0.19606442  0.95316289  0.91889610     0.04100
N2655       N  0.22406173  0.98078792  0.91819579     0.66600
H2656       H  0.21470645  0.93314479  0.94577578     0.15500
H2657       H  0.12226940  0.91914956  0.89818234     0.15200
N2658       N  0.11197111  0.87283549  0.92832955     0.74300
O2659       O  0.22707405  0.00194787  0.93355410    -0.39100
O2660       O  0.24754320  0.98078967  0.90915829    -0.39100
O2661       O  0.09238762  0.87344198  0.94413798    -0.39800
O2662       O  0.10383927  0.85179344  0.91122423    -0.39800
C2663       C  0.25286885  0.85099964  0.92453952    -0.12100
C2664       C  0.23922288  0.82639980  0.94281723     0.04900
C2665       C  0.24632193  0.80288419  0.93992351    -0.07400
C2666       C  0.26708861  0.80485870  0.91969560    -0.08200
C2667       C  0.28173447  0.83017244  0.90252970    -0.02700
C2668       C  0.27396662  0.85314551  0.90467933     0.04100
N2669       N  0.28666931  0.87850374  0.88650160     0.66600
H2670       H  0.24738991  0.86902660  0.92570371     0.15500
H2671       H  0.27306879  0.78716826  0.91847883     0.15200
N2672       N  0.23437275  0.77777202  0.95833399     0.74300
O2673       O  0.27344289  0.87692612  0.86412212    -0.39100
O2674       O  0.30516705  0.90401718  0.89581678    -0.39100
O2675       O  0.21419381  0.75245370  0.94997603    -0.39800
O2676       O  0.24899402  0.77918708  0.97977279    -0.39800
C2677       C  0.19299483  0.92183078  0.57748922    -0.12100
C2678       C  0.17701608  0.91672389  0.55278442     0.04900
C2679       C  0.16496676  0.93565473  0.54574857    -0.07400
C2680       C  0.16743969  0.95781624  0.56406761    -0.08200
C2681       C  0.18195721  0.96192740  0.58954622    -0.02700
C2682       C  0.19529932  0.94400362  0.59591110     0.04100
N2683       N  0.21042336  0.94723876  0.62130333     0.66600
H2684       H  0.20283319  0.90782749  0.58299587     0.15500
H2685       H  0.15759498  0.97177058  0.55837752     0.15200
N2686       N  0.15117330  0.93349300  0.51964354     0.74300
O2687       O  0.19538469  0.93241842  0.64200956    -0.39100
O2688       O  0.23883839  0.95817652  0.62099974    -0.39100
O2689       O  0.12268751  0.92204997  0.51823298    -0.39800
O2690       O  0.16744036  0.94920556  0.49982757    -0.39800
C2691       C  0.26989886  0.83960979  0.54398825    -0.12100
C2692       C  0.23990553  0.82562866  0.55364119     0.04900
C2693       C  0.23295916  0.81022732  0.57907399    -0.07400
C2694       C  0.25644941  0.81054703  0.59481659    -0.08200
C2695       C  0.28665460  0.82507800  0.58521950    -0.02700
C2696       C  0.29303058  0.83897813  0.55908358     0.04100
N2697       N  0.32254399  0.85143324  0.54683007     0.66600
H2698       H  0.27533010  0.85036557  0.52393917     0.15500
H2699       H  0.25120360  0.80040767  0.61502432     0.15200
N2700       N  0.20264247  0.79540140  0.58977013     0.74300
O2701       O  0.33196447  0.83386772  0.53894417    -0.39100
O2702       O  0.33450853  0.87760058  0.53677262    -0.39100
O2703       O  0.18731031  0.76711937  0.58885394    -0.39800
O2704       O  0.19403309  0.80954764  0.60535984    -0.39800
Fe2705     Fe  0.70417758  0.36851075  0.00252693     1.65800
Fe2706     Fe  0.62751116  0.33426446  0.50027824     1.73200
Fe2707     Fe  0.66215388  0.29120868  0.49841246     1.54400
O2708       O  0.69750712  0.30363565  0.47037126    -0.81500
O2709       O  0.60629308  0.29644799  0.03013952    -0.79800
O2710       O  0.71651186  0.35260070  0.46323996    -0.84000
O2711       O  0.71888650  0.35466352  0.03599541    -0.78900
O2712       O  0.63288147  0.27723720  0.46570075    -0.80700
O2713       O  0.64045225  0.36117440  0.03624498    -0.83400
C2714       C  0.71821650  0.32995655  0.04117085     0.97400
C2715       C  0.71463574  0.32756895  0.45713586     1.04800
O2716       O  0.66455360  0.33082936  0.49901176    -1.12400
O2717       O  0.64026578  0.36186777  0.46581906    -0.74800
O2718       O  0.68987717  0.39013763  0.47250036    -0.78300
O2719       O  0.70146702  0.30610509  0.02802103    -0.79000
C2720       C  0.66562760  0.38488266  0.46026881     0.96300
O2721       O  0.68998800  0.39082689  0.02940094    -0.77000
O2722       O  0.60375141  0.29770324  0.47469253    -0.82200
C2723       C  0.61310851  0.27822867  0.04191300     0.98900
C2724       C  0.60922793  0.27934716  0.46150782     1.04800
O2725       O  0.63680145  0.27683278  0.03553846    -0.77800
C2726       C  0.66543635  0.38442759  0.04194617     1.03100
Fe2727     Fe  0.87293131  0.16499156  0.49905089     1.65800
Fe2728     Fe  0.79430332  0.12850407  0.99929626     1.73200
Fe2729     Fe  0.83541484  0.20427619  0.00319339     1.54400
O2730       O  0.86217253  0.21585183  0.03762109    -0.81500
O2731       O  0.77333395  0.14530291  0.47856666    -0.79800
O2732       O  0.89416123  0.19957658  0.02629907    -0.84000
O2733       O  0.88740924  0.19135538  0.46359073    -0.78900
O2734       O  0.79800246  0.18869461  0.02946104    -0.80700
O2735       O  0.80599867  0.11287813  0.46789751    -0.83400
C2736       C  0.88865413  0.21669895  0.46021154     0.97400
C2737       C  0.88689450  0.21562545  0.04111761     1.04800
O2738       O  0.83348680  0.16529111  0.00058669    -1.12400
O2739       O  0.80856266  0.10472196  0.02425476    -0.74800
O2740       O  0.85687050  0.13576342  0.03456687    -0.78300
O2741       O  0.87161724  0.22416873  0.47347383    -0.79000
C2742       C  0.83196267  0.11182622  0.03885793     0.96300
O2743       O  0.85455942  0.12636097  0.47532618    -0.77000
O2744       O  0.77919209  0.13940562  0.03414785    -0.82200
C2745       C  0.78020810  0.16927450  0.46520475     0.98900
C2746       C  0.78026121  0.16375549  0.04116727     1.04800
O2747       O  0.80596892  0.19266445  0.46734436    -0.77800
C2748       C  0.82930919  0.11018667  0.46348247     1.03100
C2749       C  0.97567619  0.50162271  0.13847897     0.02400
C2750       C  0.00271420  0.02852764  0.13698739     0.02400
C2751       C  0.52773636  0.02030982  0.12648567     0.02400
C2752       C  0.52539688  0.49748884  0.14160283     0.02400
C2753       C  0.99978708  0.47013410  0.13301173     0.02400
C2754       C  0.97320425  0.47262302  0.13725402     0.02400
C2755       C  0.81224745  0.48127636  0.13993696     0.80400
N2756       N  0.84018676  0.48387628  0.14167843    -0.77900
C2757       C  0.86452968  0.50639974  0.12930878     0.82800
N2758       N  0.85727597  0.02506237  0.11644273    -0.77900
C2759       C  0.82978788  0.02392099  0.11530825     0.82900
N2760       N  0.80871659  0.50225847  0.12502386    -0.79600
C2761       C  0.69222565  0.01069881  0.14955549     0.80400
N2762       N  0.66453652  0.00930106  0.15059193    -0.77900
C2763       C  0.62988698  0.48069868  0.14534848     0.82800
N2764       N  0.63300499  0.46015725  0.13002561    -0.77900
C2765       C  0.66082359  0.46258482  0.12620346     0.82900
N2766       N  0.68580072  0.48662488  0.13703593    -0.79600
C2767       C  0.69002888  0.16340382  0.11512932     0.80400
N2768       N  0.69169662  0.18755319  0.12877473    -0.77900
C2769       C  0.66665996  0.18509532  0.14214203     0.82800
N2770       N  0.64033191  0.15838694  0.14180954    -0.77900
C2771       C  0.63846284  0.13460649  0.12803072     0.82900
N2772       N  0.66323535  0.13730520  0.11484474    -0.79600
C2773       C  0.98667046  0.17282417  0.14789816     0.80400
N2774       N  0.00454233  0.19499915  0.12972989    -0.77900
C2775       C  0.52601881  0.18512462  0.11487526     0.82800
N2776       N  0.52499110  0.15805924  0.11507093    -0.77900
C2777       C  0.01257855  0.14629293  0.13660311     0.82900
N2778       N  0.99121250  0.14890693  0.15130470    -0.79600
C2779       C  0.80451669  0.33602658  0.12151397     0.80400
N2780       N  0.80286263  0.31123908  0.13370816    -0.77900
C2781       C  0.82689984  0.31320375  0.14782995     0.82800
N2782       N  0.85268978  0.34012379  0.14936566    -0.77900
C2783       C  0.85485516  0.36497237  0.13691744     0.82900
N2784       N  0.83058150  0.36276249  0.12302522    -0.79600
C2785       C  0.51346595  0.32968182  0.14968772     0.80400
N2786       N  0.50890911  0.35356638  0.15317256    -0.77900
C2787       C  0.00059425  0.35661599  0.12558499     0.82800
N2788       N  0.97854529  0.33262859  0.11204916    -0.77900
C2789       C  0.98019204  0.30691991  0.10901024     0.82900
N2790       N  0.00420313  0.30535022  0.11979524    -0.79600
Fe2791     Fe  0.83655161  0.13035056  0.25175851     1.65800
Fe2792     Fe  0.79084057  0.16201929  0.25026310     1.73200
Fe2793     Fe  0.86771686  0.20633247  0.25090596     1.54400
O2794       O  0.89016347  0.19399291  0.27934786    -0.81500
O2795       O  0.80055720  0.19119173  0.21706183    -0.79800
O2796       O  0.86199596  0.14481931  0.28724457    -0.84000
O2797       O  0.87534819  0.14974646  0.22757893    -0.78900
O2798       O  0.85130252  0.22016350  0.28322169    -0.80700
O2799       O  0.77496441  0.12552287  0.22359075    -0.83400
C2800       C  0.89168289  0.17426273  0.21477154     0.97400
C2801       C  0.88411934  0.17043681  0.29307643     1.04800
O2802       O  0.83164801  0.16630415  0.25065007    -1.12400
O2803       O  0.77687472  0.13297798  0.28362315    -0.74800
O2804       O  0.79853817  0.10481824  0.27613446    -0.78300
O2805       O  0.88865028  0.19723447  0.21852060    -0.79000
C2806       C  0.77918358  0.10966570  0.28848748     0.96300
O2807       O  0.81095474  0.11269768  0.21659667    -0.77000
O2808       O  0.80128023  0.19748218  0.27741093    -0.82200
C2809       C  0.82429342  0.21593326  0.21139932     0.98900
C2810       C  0.82537230  0.21699259  0.28914939     1.04800
O2811       O  0.84962847  0.22388901  0.22300302    -0.77800
C2812       C  0.78480576  0.10955172  0.21185717     1.03100
Fe2813     Fe  0.63083123  0.29379766  0.25003734     1.65800
Fe2814     Fe  0.70801216  0.33463576  0.24808900     1.73200
Fe2815     Fe  0.66535901  0.36966463  0.24508635     1.54400
O2816       O  0.63742903  0.35360713  0.21147293    -0.81500
O2817       O  0.72654044  0.37224965  0.27304351    -0.79800
O2818       O  0.60683834  0.30557816  0.22250681    -0.84000
O2819       O  0.61450264  0.30684815  0.28280877    -0.78900
O2820       O  0.70199223  0.39118192  0.21859699    -0.80700
O2821       O  0.69843536  0.30792957  0.28313258    -0.83400
C2822       C  0.61174861  0.33010739  0.28493925     0.97400
C2823       C  0.61303229  0.32888910  0.20838147     1.04800
O2824       O  0.66819034  0.33272227  0.24777068    -1.12400
O2825       O  0.69372008  0.29705238  0.22273012    -0.74800
O2826       O  0.64348528  0.27660204  0.21792361    -0.78300
O2827       O  0.62781018  0.35382200  0.27097108    -0.79000
C2828       C  0.66853683  0.27767555  0.21233402     0.96300
O2829       O  0.64921088  0.27640150  0.27749521    -0.77000
O2830       O  0.72311086  0.36200286  0.21360442    -0.82200
C2831       C  0.71883386  0.39031389  0.28384706     0.98900
C2832       C  0.72132115  0.38534479  0.20759292     1.04800
O2833       O  0.69370994  0.38928098  0.27836827    -0.77800
C2834       C  0.67435505  0.28385024  0.28919807     1.03100
C2835       C  0.52400341  0.00196702  0.36384678     0.02400
C2836       C  0.49563926  0.47139244  0.36250955     0.02400
C2837       C  0.97342678  0.47515501  0.36418412     0.02400
C2838       C  0.96895844  0.00162379  0.36130963     0.02400
C2839       C  0.49546891  0.02949457  0.36500808     0.02400
C2840       C  0.52367240  0.02961232  0.36485859     0.02400
C2841       C  0.68947875  0.02296672  0.36358161     0.80400
N2842       N  0.66245446  0.02248982  0.36264589    -0.77900
C2843       C  0.63794928  0.00125674  0.37632276     0.82800
N2844       N  0.64130026  0.47896787  0.39164737    -0.77900
C2845       C  0.66859397  0.47980621  0.39287654     0.82900
N2846       N  0.69195223  0.00138018  0.37826327    -0.79600
C2847       C  0.81173908  0.48465471  0.35133415     0.80400
N2848       N  0.80300318  0.00738299  0.36724300    -0.77900
C2849       C  0.82593996  0.02488614  0.38467543     0.82800
N2850       N  0.85232266  0.02387421  0.38386853    -0.77900
C2851       C  0.85634887  0.00597380  0.36597462     0.82900
N2852       N  0.83948701  0.48672194  0.35206184    -0.79600
C2853       C  0.97091412  0.16965863  0.36855766     0.80400
N2854       N  0.97066317  0.14299104  0.36713612    -0.77900
C2855       C  0.99144299  0.13852518  0.38090631     0.82800
N2856       N  0.51215309  0.16282418  0.39398021    -0.77900
C2857       C  0.51327238  0.18999952  0.39480740     0.82900
N2858       N  0.99210780  0.19217308  0.38415861    -0.79600
C2859       C  0.68814662  0.16914718  0.39380026     0.80400
N2860       N  0.69249804  0.19255003  0.37708519    -0.77900
C2861       C  0.66962611  0.18997941  0.36047912     0.82800
N2862       N  0.64269870  0.16416069  0.36108311    -0.77900
C2863       C  0.63795754  0.14071761  0.37734678     0.82900
N2864       N  0.66082377  0.14335599  0.39371696    -0.79600
C2865       C  0.51983063  0.32898572  0.35687343     0.80400
N2866       N  0.51815458  0.35468365  0.35503183    -0.77900
C2867       C  0.49742645  0.35845636  0.36951883     0.82800
N2868       N  0.98431285  0.33991235  0.39464617    -0.77900
C2869       C  0.98336210  0.31275873  0.39565513     0.82900
N2870       N  0.50014048  0.30639382  0.37376563    -0.79600
C2871       C  0.80701995  0.33467522  0.38260623     0.80400
N2872       N  0.80584865  0.31016961  0.37048742    -0.77900
C2873       C  0.83099729  0.31155140  0.35882859     0.82800
N2874       N  0.85754547  0.33793516  0.35915498    -0.77900
C2875       C  0.85919788  0.36272595  0.37125279     0.82900
N2876       N  0.83382312  0.36092910  0.38297588    -0.79600
C2877       C  0.98867787  0.07028473  0.34788043    -0.12100
C2878       C  0.49419400  0.05777550  0.36995779     0.04900
C2879       C  0.50101710  0.07255027  0.39573016    -0.07400
C2880       C  0.49975382  0.09947012  0.39833004    -0.08200
C2881       C  0.99294063  0.11056048  0.37702607    -0.02700
C2882       C  0.98752108  0.09684671  0.35109833     0.04100
N2883       N  0.98348171  0.11106221  0.32733680     0.66600
H2884       H  0.98530638  0.06056237  0.32765508     0.15500
H2885       H  0.50492028  0.11092215  0.41790587     0.15200
N2886       N  0.50890953  0.06067349  0.41934196     0.74300
O2887       O  0.00551897  0.13485243  0.31790996    -0.39100
O2888       O  0.95757385  0.10080823  0.31664665    -0.39100
O2889       O  0.52496814  0.07805646  0.43819315    -0.39800
O2890       O  0.49842142  0.03274939  0.42245832    -0.39800
C2891       C  0.56964631  0.06348536  0.39238470    -0.12100
C2892       C  0.55279037  0.05840891  0.36807034     0.04900
C2893       C  0.56379002  0.08095684  0.34756457    -0.07400
C2894       C  0.59151431  0.10709540  0.35128342    -0.08200
C2895       C  0.60860643  0.11220650  0.37532993    -0.02700
C2896       C  0.59724207  0.09010226  0.39620450     0.04100
N2897       N  0.61291527  0.09460305  0.42162543     0.66600
H2898       H  0.56103288  0.04691161  0.40869890     0.15500
H2899       H  0.59989988  0.12314422  0.33483459     0.15200
N2900       N  0.54727720  0.07824813  0.32287882     0.74300
O2901       O  0.61259548  0.11269380  0.43907782    -0.39100
O2902       O  0.62873454  0.08202112  0.42588200    -0.39100
O2903       O  0.54194799  0.09918182  0.31631393    -0.39800
O2904       O  0.54551760  0.06001172  0.30461757    -0.39800
C2905       C  0.90702253  0.39756475  0.34685528    -0.12100
C2906       C  0.88804356  0.39176261  0.36985249     0.04900
C2907       C  0.89694731  0.41395281  0.39038130    -0.07400
C2908       C  0.92446872  0.44082689  0.38769015    -0.08200
C2909       C  0.94353918  0.44663688  0.36475486    -0.02700
C2910       C  0.93433974  0.42461495  0.34392434     0.04100
N2911       N  0.95198730  0.42899659  0.31952345     0.66600
H2912       H  0.90036372  0.38111059  0.33060090     0.15500
H2913       H  0.93159803  0.45683743  0.40432175     0.15200
N2914       N  0.87933109  0.40914220  0.41482035     0.74300
O2915       O  0.96236627  0.41136943  0.31504980    -0.39100
O2916       O  0.94761949  0.44168595  0.29915413    -0.39100
O2917       O  0.88263302  0.39498423  0.43461630    -0.39800
O2918       O  0.86757556  0.42560617  0.41931635    -0.39800
C2919       C  0.93573851  0.51047098  0.38977758    -0.12100
C2920       C  0.93991620  0.00272576  0.36181850     0.04900
C2921       C  0.92310749  0.00022782  0.33788402    -0.07400
C2922       C  0.89592292  0.00115836  0.33996016    -0.08200
C2923       C  0.88518935  0.00511261  0.36530475    -0.02700
C2924       C  0.90887522  0.51203560  0.39164311     0.04100
N2925       N  0.89909120  0.51659612  0.41792033     0.66600
H2926       H  0.94852953  0.51282174  0.40824168     0.15500
H2927       H  0.88349405  0.99952308  0.32140867     0.15200
N2928       N  0.93307353  0.99710701  0.31118566     0.74300
O2929       O  0.88261108  0.49418557  0.43291650    -0.39100
O2930       O  0.91215667  0.54247166  0.42836695    -0.39100
O2931       O  0.95195193  0.02044117  0.29846967    -0.39800
O2932       O  0.91562838  0.97437212  0.29729212    -0.39800
C2933       C  0.60145233  0.00873999  0.34825977    -0.12100
C2934       C  0.60854097  0.00065308  0.37356665     0.04900
C2935       C  0.58862711  0.49271823  0.39586570    -0.07400
C2936       C  0.56097165  0.49213786  0.39131782    -0.08200
C2937       C  0.55333824  0.00147848  0.36643242    -0.02700
C2938       C  0.57423691  0.00919764  0.34439341     0.04100
N2939       N  0.56881664  0.01806448  0.31805171     0.66600
H2940       H  0.61714474  0.01453157  0.33108727     0.15500
H2941       H  0.54659608  0.48979861  0.40872440     0.15200
N2942       N  0.59758512  0.49075960  0.42328750     0.74300
O2943       O  0.55027841  0.99826577  0.30203907    -0.39100
O2944       O  0.58878524  0.04272657  0.30795051    -0.39100
O2945       O  0.61828213  0.51390152  0.43462763    -0.39800
O2946       O  0.58877031  0.46532312  0.43416657    -0.39800
C2947       C  0.50559872  0.43234989  0.34257545    -0.12100
C2948       C  0.49496664  0.44180915  0.36500733     0.04900
C2949       C  0.99035686  0.42720840  0.39465801    -0.07400
C2950       C  0.99128074  0.40015985  0.39642090    -0.08200
C2951       C  0.49634500  0.38694677  0.36723438    -0.02700
C2952       C  0.50689132  0.40556305  0.34368341     0.04100
N2953       N  0.51868089  0.39785229  0.32015791     0.66600
H2954       H  0.51150664  0.44442756  0.32499177     0.15500
H2955       H  0.98304284  0.38681755  0.41487902     0.15200
N2956       N  0.98082775  0.43701539  0.41835796     0.74300
O2957       O  0.50148390  0.38544513  0.29998607    -0.39100
O2958       O  0.54708619  0.41042773  0.31667662    -0.39100
O2959       O  0.00085680  0.45586737  0.43405532    -0.39800
O2960       O  0.95453256  0.42042617  0.42798804    -0.39800
C2961       C  0.65505636  0.23136758  0.30269655    -0.12100
C2962       C  0.67508372  0.26152007  0.30846637     0.04900
C2963       C  0.69487273  0.26836707  0.33108632    -0.07400
C2964       C  0.69372746  0.24489014  0.34746505    -0.08200
C2965       C  0.67311840  0.21457322  0.34160126    -0.02700
C2966       C  0.65406358  0.20817545  0.31843573     0.04100
N2967       N  0.63350328  0.17818594  0.30998928     0.66600
H2968       H  0.64006447  0.22546904  0.28537690     0.15500
H2969       H  0.70824447  0.25045357  0.36524425     0.15200
N2970       N  0.71476769  0.29876045  0.33879357     0.74300
O2971       O  0.60531909  0.16908814  0.31098939    -0.39100
O2972       O  0.64320739  0.16469007  0.29475711    -0.39100
O2973       O  0.70579182  0.31102640  0.35621669    -0.39800
O2974       O  0.74279605  0.31036460  0.33361256    -0.39800
C2975       C  0.58051059  0.31209662  0.32788600    -0.12100
C2976       C  0.58804542  0.32909462  0.30347172     0.04900
C2977       C  0.57126819  0.34338848  0.29609029    -0.07400
C2978       C  0.54861759  0.34174627  0.31352008    -0.08200
C2979       C  0.54197468  0.32623077  0.33868790    -0.02700
C2980       C  0.55764808  0.31050811  0.34555919     0.04100
N2981       N  0.55096472  0.29298144  0.37013570     0.66600
H2982       H  0.59270551  0.30032536  0.33347373     0.15500
H2983       H  0.53588762  0.35265921  0.30702380     0.15200
N2984       N  0.57541170  0.35797998  0.27007861     0.74300
O2985       O  0.54031495  0.26497510  0.36821012    -0.39100
O2986       O  0.56323483  0.30571546  0.39232224    -0.39100
O2987       O  0.55786741  0.34366907  0.25064562    -0.39800
O2988       O  0.59065026  0.38625945  0.26868276    -0.39800
C2989       C  0.75826692  0.45701041  0.33336970    -0.12100
C2990       C  0.78785162  0.46091067  0.33378157     0.04900
C2991       C  0.79395182  0.44115327  0.31772982    -0.07400
C2992       C  0.77078880  0.41811731  0.30289474    -0.08200
C2993       C  0.74125253  0.41414591  0.30229955    -0.02700
C2994       C  0.73516714  0.43420192  0.31767570     0.04100
N2995       N  0.70581270  0.43192751  0.31772669     0.66600
H2996       H  0.75291427  0.47180077  0.34521381     0.15500
H2997       H  0.77656226  0.40366335  0.29100476     0.15200
N2998       N  0.82372547  0.44443635  0.31518974     0.74300
O2999       O  0.68776673  0.41855904  0.33738820    -0.39100
O3000       O  0.70109748  0.44924297  0.30244224    -0.39100
O3001       O  0.83044701  0.42747877  0.32889336    -0.39800
O3002       O  0.84026345  0.45889491  0.29501101    -0.39800
C3003       C  0.91776610  0.15303425  0.35578680    -0.12100
C3004       C  0.94866630  0.17370055  0.35219243     0.04900
C3005       C  0.95762130  0.19528753  0.33096856    -0.07400
C3006       C  0.93579502  0.19488200  0.31305890    -0.08200
C3007       C  0.90506534  0.17296388  0.31548791    -0.02700
C3008       C  0.89594287  0.15269553  0.33789221     0.04100
N3009       N  0.86472328  0.13160002  0.34280776     0.66600
H3010       H  0.91058966  0.13660710  0.37228709     0.15500
H3011       H  0.94336275  0.21060718  0.29597863     0.15200
N3012       N  0.98890395  0.21588649  0.32549168     0.74300
O3013       O  0.85496203  0.10440549  0.33673915    -0.39100
O3014       O  0.84953647  0.13845493  0.35905848    -0.39100
O3015       O  0.00468821  0.20663563  0.31297326    -0.39800
O3016       O  0.99774851  0.24368253  0.32563898    -0.39800
C3017       C  0.74221391  0.09616575  0.32715445    -0.12100
C3018       C  0.75817521  0.08735171  0.30907875     0.04900
C3019       C  0.75269066  0.05728328  0.31063274    -0.07400
C3020       C  0.73102000  0.03690676  0.32923897    -0.08200
C3021       C  0.71483723  0.04580116  0.34681152    -0.02700
C3022       C  0.72078501  0.07586571  0.34578001     0.04100
N3023       N  0.70520378  0.08623934  0.36350621     0.66600
H3024       H  0.74615071  0.11903008  0.32678005     0.15500
H3025       H  0.72633989  0.01378602  0.32951401     0.15200
N3026       N  0.76815909  0.04662569  0.29312504     0.74300
O3027       O  0.71685918  0.09782167  0.38626456    -0.39100
O3028       O  0.68418140  0.09017533  0.35393485    -0.39100
O3029       O  0.78883683  0.04235791  0.30303760    -0.39800
O3030       O  0.75619684  0.03444248  0.27063563    -0.39800
C3031       C  0.80232145  0.26768890  0.32843842    -0.12100
C3032       C  0.82860508  0.28525441  0.34373995     0.04900
C3033       C  0.85224629  0.27801266  0.34320897    -0.07400
C3034       C  0.84982506  0.25464170  0.32646556    -0.08200
C3035       C  0.82418283  0.23799494  0.30985434    -0.02700
C3036       C  0.79981285  0.24428449  0.31167675     0.04100
N3037       N  0.77318167  0.22879919  0.29532683     0.66600
H3038       H  0.78385116  0.27281866  0.32867924     0.15500
H3039       H  0.86859490  0.24997336  0.32609484     0.15200
N3040       N  0.87859494  0.29363095  0.35994824     0.74300
O3041       O  0.75098357  0.20509557  0.30464829    -0.39100
O3042       O  0.76864157  0.24301132  0.27636159    -0.39100
O3043       O  0.87970295  0.28229496  0.38270850    -0.39800
O3044       O  0.90287045  0.31390987  0.34929826    -0.39800
C3045       C  0.58498961  0.35369699  0.19248006    -0.12100
C3046       C  0.58950587  0.32890840  0.19036610     0.04900
C3047       C  0.56962018  0.30448817  0.17391309    -0.07400
C3048       C  0.54526888  0.30520253  0.16048280    -0.08200
C3049       C  0.54011979  0.32986967  0.16335525    -0.02700
C3050       C  0.56085850  0.35452857  0.17959577     0.04100
N3051       N  0.55752710  0.38038017  0.18457871     0.66600
H3052       H  0.59980888  0.37249645  0.20531180     0.15500
H3053       H  0.53029401  0.28626306  0.14792399     0.15200
N3054       N  0.57443603  0.27941008  0.16978085     0.74300
O3055       O  0.55060533  0.38439820  0.20852333    -0.39100
O3056       O  0.57023221  0.40264243  0.16849547    -0.39100
O3057       O  0.55611207  0.25428895  0.18026316    -0.39800
O3058       O  0.59218657  0.28061254  0.15086230    -0.39800
C3059       C  0.84994671  0.25866110  0.17834980    -0.12100
C3060       C  0.82292913  0.23754681  0.19152324     0.04900
C3061       C  0.79652586  0.24028076  0.18806947    -0.07400
C3062       C  0.79815451  0.26472773  0.17335037    -0.08200
C3063       C  0.82537526  0.28624667  0.16105383    -0.02700
C3064       C  0.85126341  0.28253244  0.16293755     0.04100
N3065       N  0.87908474  0.30286270  0.14933557     0.66600
H3066       H  0.87037823  0.25681630  0.18023088     0.15500
H3067       H  0.77816801  0.26738677  0.17235647     0.15200
N3068       N  0.76831219  0.21970828  0.20077880     0.74300
O3069       O  0.90238800  0.31936383  0.16324544    -0.39100
O3070       O  0.87966003  0.30632213  0.12361080    -0.39100
O3071       O  0.76004691  0.22759663  0.22222803    -0.39800
O3072       O  0.74866737  0.19819263  0.18688944    -0.39800
C3073       C  0.91351263  0.14781278  0.18840963    -0.12100
C3074       C  0.91508897  0.17522211  0.19530957     0.04900
C3075       C  0.93953834  0.20207213  0.18455795    -0.07400
C3076       C  0.96230212  0.20091319  0.16862816    -0.08200
C3077       C  0.96122980  0.17341414  0.16295377    -0.02700
C3078       C  0.93587180  0.14657873  0.17248416     0.04100
N3079       N  0.93179985  0.11757039  0.16577632     0.66600
H3080       H  0.89465753  0.12676729  0.19549435     0.15500
H3081       H  0.98127349  0.22171925  0.16127082     0.15200
N3082       N  0.94213521  0.23073297  0.18996521     0.74300
O3083       O  0.93418298  0.10165540  0.18445142    -0.39100
O3084       O  0.91830933  0.10516478  0.14386809    -0.39100
O3085       O  0.95927699  0.24664838  0.20901257    -0.39800
O3086       O  0.93368135  0.24285569  0.17192150    -0.39800
C3087       C  0.68999491  0.26240346  0.17317803    -0.12100
C3088       C  0.66784212  0.25452291  0.19373286     0.04900
C3089       C  0.64499551  0.22422572  0.19635603    -0.07400
C3090       C  0.64543272  0.20246487  0.17941945    -0.08200
C3091       C  0.66760835  0.21002171  0.15880019    -0.02700
C3092       C  0.68952799  0.24064811  0.15522801     0.04100
N3093       N  0.71003887  0.25053838  0.13247661     0.66600
H3094       H  0.70703830  0.28575345  0.17033702     0.15500
H3095       H  0.62816904  0.17930479  0.18278177     0.15200
N3096       N  0.62172427  0.21476838  0.21686979     0.74300
O3097       O  0.70044459  0.25322750  0.10931613    -0.39100
O3098       O  0.73817596  0.26469727  0.13703863    -0.39100
O3099       O  0.59589756  0.21083322  0.21015597    -0.39800
O3100       O  0.62417389  0.20247006  0.23850273    -0.39800
C3101       C  0.74659310  0.05167323  0.15462551    -0.12100
C3102       C  0.71745888  0.03392837  0.16624274     0.04900
C3103       C  0.71193044  0.04078283  0.19302412    -0.07400
C3104       C  0.73424067  0.06584474  0.20666587    -0.08200
C3105       C  0.76297170  0.08393839  0.19502991    -0.02700
C3106       C  0.76960591  0.07604994  0.16911489     0.04100
N3107       N  0.79903977  0.09292360  0.15687747     0.66600
H3108       H  0.75139647  0.04691978  0.13415190     0.15500
H3109       H  0.72931873  0.07066118  0.22714189     0.15200
N3110       N  0.68418316  0.02192151  0.20732142     0.74300
O3111       O  0.81803593  0.08373785  0.15947870    -0.39100
O3112       O  0.80335230  0.11223401  0.13860553    -0.39100
O3113       O  0.67937732  0.99661383  0.21597100    -0.39800
O3114       O  0.66954769  0.03358504  0.21788316    -0.39800
C3115       C  0.73464828  0.42171119  0.16845988    -0.12100
C3116       C  0.74379690  0.40785597  0.18845830     0.04900
C3117       C  0.77495476  0.41782613  0.19171991    -0.07400
C3118       C  0.79619277  0.44176482  0.17594845    -0.08200
C3119       C  0.78745425  0.45603113  0.15585285    -0.02700
C3120       C  0.75613308  0.44506241  0.15170647     0.04100
N3121       N  0.74561938  0.45630055  0.12998556     0.66600
H3122       H  0.71068281  0.41403407  0.16552882     0.15500
H3123       H  0.81993114  0.44923833  0.17990681     0.15200
N3124       N  0.78566896  0.40476264  0.21180406     0.74300
O3125       O  0.74089915  0.44403869  0.10672062    -0.39100
O3126       O  0.78194770  0.00843051  0.19916124    -0.39100
O3127       O  0.79443848  0.38661027  0.20414861    -0.39800
O3128       O  0.79337964  0.41676962  0.23513654    -0.39800
C3129       C  0.57191140  0.06229923  0.10357480    -0.12100
C3130       C  0.55661707  0.04937379  0.12813156     0.04900
C3131       C  0.56872411  0.06458385  0.15313742    -0.07400
C3132       C  0.59509688  0.09278692  0.15266192    -0.08200
C3133       C  0.61003172  0.10570240  0.12782296    -0.02700
C3134       C  0.59835560  0.09009588  0.10314603     0.04100
N3135       N  0.61221468  0.10286267  0.07728469     0.66600
H3136       H  0.56283503  0.05101711  0.08450176     0.15500
H3137       H  0.60436563  0.10429488  0.17183218     0.15200
N3138       N  0.55553050  0.05155266  0.17918292     0.74300
O3139       O  0.62779069  0.09315468  0.06510491    -0.39100
O3140       O  0.60356296  0.11869935  0.06419674    -0.39100
O3141       O  0.56849585  0.04066169  0.19368331    -0.39800
O3142       O  0.53915447  0.06038340  0.19119140    -0.39800
C3143       C  0.49435992  0.05936232  0.15007451    -0.12100
C3144       C  0.00461849  0.05860833  0.13600080     0.04900
C3145       C  0.01044619  0.07554610  0.11140414    -0.07400
C3146       C  0.01439821  0.10464733  0.11240515    -0.08200
C3147       C  0.01307043  0.11757789  0.13734704    -0.02700
C3148       C  0.49566734  0.08719706  0.15197049     0.04100
N3149       N  0.49267675  0.09762557  0.17839561     0.66600
H3150       H  0.49055706  0.04621250  0.16844229     0.15500
H3151       H  0.01743516  0.11678550  0.09332321     0.15200
N3152       N  0.01116347  0.06353120  0.08504511     0.74300
O3153       O  0.46683851  0.08617881  0.18970165    -0.39100
O3154       O  0.51606257  0.11191829  0.19290600    -0.39100
O3155       O  0.03643738  0.07357054  0.07294925    -0.39800
O3156       O  0.98773118  0.05358809  0.07035200    -0.39800
C3157       C  0.57035167  0.99489549  0.15141708    -0.12100
C3158       C  0.55196998  0.49259227  0.14167946     0.04900
C3159       C  0.56860672  0.49461903  0.11748109    -0.07400
C3160       C  0.59259117  0.48816507  0.11930009    -0.08200
C3161       C  0.60155730  0.48204431  0.14462184    -0.02700
C3162       C  0.59740306  0.99402505  0.15507061     0.04100
N3163       N  0.60778452  0.99452620  0.18238308     0.66600
H3164       H  0.55772626  0.99511253  0.16929937     0.15500
H3165       H  0.60549847  0.48946378  0.10100242     0.15200
N3166       N  0.56289440  0.50460923  0.09146401     0.74300
O3167       O  0.61325522  0.01666325  0.19744138    -0.39100
O3168       O  0.60285430  0.97015602  0.19349310    -0.39100
O3169       O  0.58365348  0.51582929  0.07347196    -0.39800
O3170       O  0.53781155  0.50345497  0.08647714    -0.39800
C3171       C  0.01181718  0.43171513  0.15159812    -0.12100
C3172       C  0.99812187  0.44003050  0.13086018     0.04900
C3173       C  0.48857793  0.42544327  0.11375515    -0.07400
C3174       C  0.48475654  0.39642483  0.11533878    -0.08200
C3175       C  0.99884887  0.38475037  0.12851351    -0.02700
C3176       C  0.01258884  0.40474068  0.15059098     0.04100
N3177       N  0.02630182  0.39763002  0.17293204     0.66600
H3178       H  0.02169391  0.44621940  0.16914316     0.15500
H3179       H  0.48315274  0.38453885  0.09645631     0.15200
N3180       N  0.49162148  0.43845203  0.08707704     0.74300
O3181       O  0.05460037  0.41319992  0.17635497    -0.39100
O3182       O  0.00982033  0.38240730  0.19284510    -0.39100
O3183       O  0.51536428  0.44480106  0.07345349    -0.39800
O3184       O  0.46783410  0.43233967  0.07393329    -0.39800
C3185       C  0.92159705  0.44132882  0.11771704    -0.12100
C3186       C  0.94250583  0.44522192  0.13839103     0.04900
C3187       C  0.93379570  0.42293723  0.15912558    -0.07400
C3188       C  0.90504047  0.39737533  0.15820159    -0.08200
C3189       C  0.88417233  0.39349924  0.13747762    -0.02700
C3190       C  0.89260566  0.41619752  0.11726957     0.04100
N3191       N  0.87285290  0.41361422  0.09525019     0.66600
H3192       H  0.92814811  0.45760427  0.10119338     0.15500
H3193       H  0.89887240  0.38053556  0.17418648     0.15200
N3194       N  0.95337523  0.42573069  0.18147948     0.74300
O3195       O  0.85969578  0.42923149  0.09575049    -0.38300
O3196       O  0.87497061  0.40248216  0.07278437    -0.39100
O3197       O  0.95734010  0.40379604  0.18749061    -0.39800
O3198       O  0.95979189  0.44599562  0.19910410    -0.39800
C3199       C  0.89986777  0.00003114  0.15883186    -0.12100
C3200       C  0.89429030  0.50820286  0.13219050     0.04900
C3201       C  0.91565492  0.51793465  0.11057081    -0.07400
C3202       C  0.94197415  0.51578826  0.11345389    -0.08200
C3203       C  0.94802108  0.50496032  0.13780483    -0.02700
C3204       C  0.92703375  0.99913590  0.16131850     0.04100
N3205       N  0.93438808  0.99177682  0.18746672     0.66600
H3206       H  0.88560455  0.99566086  0.17683697     0.15500
H3207       H  0.95727646  0.52155224  0.09615435     0.15200
N3208       N  0.91020139  0.52815470  0.08494649     0.74300
O3209       O  0.95223766  0.01281287  0.20286048    -0.39100
O3210       O  0.91609121  0.96680413  0.19822460    -0.39100
O3211       O  0.92579566  0.55555632  0.07848125    -0.39800
O3212       O  0.89542864  0.50923708  0.06660800    -0.39800
C3213       C  0.80875231  0.08109642  0.42072043    -0.12100
C3214       C  0.82680846  0.08704305  0.44416107     0.04900
C3215       C  0.84148175  0.07007968  0.44918258    -0.07400
C3216       C  0.83942328  0.04899579  0.43001377    -0.08200
C3217       C  0.82294615  0.04421743  0.40562275    -0.02700
C3218       C  0.80668367  0.05986646  0.40146863     0.04100
N3219       N  0.78817673  0.05484944  0.37793691     0.66600
H3220       H  0.79664473  0.09341193  0.41702079     0.15500
H3221       H  0.85108114  0.03637745  0.43425663     0.15200
N3222       N  0.85769363  0.07316698  0.47406168     0.74300
O3223       O  0.76013897  0.03691169  0.38020635    -0.39100
O3224       O  0.79730093  0.07456253  0.35926606    -0.39100
O3225       O  0.84458536  0.05488179  0.49353841    -0.39800
O3226       O  0.88627006  0.08889601  0.47404763    -0.39800
C3227       C  0.80351291  0.06279870  0.06380679    -0.12100
C3228       C  0.83010134  0.09081567  0.06100833     0.04900
C3229       C  0.85461958  0.09746879  0.07883660    -0.07400
C3230       C  0.85300884  0.07561727  0.09711105    -0.08200
C3231       C  0.82733809  0.04697865  0.09859887    -0.02700
C3232       C  0.80189032  0.04097924  0.08238590     0.04100
N3233       N  0.77482604  0.01252435  0.08326521     0.66600
H3234       H  0.78408878  0.05722960  0.05085814     0.15500
H3235       H  0.87245927  0.08096605  0.10987915     0.15200
N3236       N  0.88165149  0.12604390  0.07853135     0.74300
O3237       O  0.75156220  0.01069798  0.09483075    -0.39100
O3238       O  0.77162800  0.99266628  0.06616046    -0.39100
O3239       O  0.88462187  0.14556948  0.09593066    -0.39800
O3240       O  0.90471903  0.12909913  0.06557071    -0.39800
C3241       C  0.76553421  0.18677233  0.42272535    -0.12100
C3242       C  0.75689800  0.17006155  0.44724689     0.04900
C3243       C  0.72582124  0.15438265  0.45455261    -0.07400
C3244       C  0.70408575  0.15473441  0.43700917    -0.08200
C3245       C  0.71253752  0.17101303  0.41218072    -0.02700
C3246       C  0.74374346  0.18735147  0.40522129     0.04100
N3247       N  0.75367308  0.20316889  0.37974666     0.66600
H3248       H  0.78929270  0.19892782  0.41677218     0.15500
H3249       H  0.68038671  0.14248756  0.44312743     0.15200
N3250       N  0.71605702  0.13894398  0.48029204     0.74300
O3251       O  0.76313655  0.23107842  0.37917946    -0.39100
O3252       O  0.76002696  0.19112280  0.36006926    -0.39100
O3253       O  0.74730401  0.20361737  0.99819306    -0.39800
O3254       O  0.70329856  0.11064582  0.48112321    -0.39800
C3255       C  0.92508439  0.27005360  0.45149396    -0.12100
C3256       C  0.91250969  0.24020590  0.44254565     0.04900
C3257       C  0.92388431  0.23429130  0.41820347    -0.07400
C3258       C  0.94714986  0.25816391  0.40332360    -0.08200
C3259       C  0.95971929  0.28801284  0.41246728    -0.02700
C3260       C  0.94841679  0.29373632  0.43696052     0.04100
N3261       N  0.96105891  0.32328863  0.44811046     0.66600
H3262       H  0.91725498  0.27513281  0.47046941     0.15500
H3263       H  0.95516389  0.25329921  0.38435785     0.15200
N3264       N  0.91130651  0.20455220  0.40762488     0.74300
O3265       O  0.94687184  0.33776519  0.44529819    -0.39100
O3266       O  0.47557867  0.33390032  0.45711674    -0.39100
O3267       O  0.89304759  0.19698208  0.38779011    -0.39800
O3268       O  0.92389370  0.18905775  0.41320731    -0.39800
C3269       C  0.76380338  0.19026310  0.07421542    -0.12100
C3270       C  0.75947767  0.16306052  0.06321323     0.04900
C3271       C  0.73439023  0.13598835  0.07259081    -0.07400
C3272       C  0.71330963  0.13693819  0.09061920    -0.08200
C3273       C  0.71620936  0.16433028  0.09988707    -0.02700
C3274       C  0.74273090  0.19108703  0.09251719     0.04100
N3275       N  0.74853423  0.21950548  0.10260757     0.66600
H3276       H  0.78338134  0.21128913  0.06814259     0.15500
H3277       H  0.69391824  0.11576243  0.09664538     0.15200
N3278       N  0.72886197  0.10725971  0.06311357     0.74300
O3279       O  0.76688381  0.23090930  0.12220350    -0.39100
O3280       O  0.74356799  0.23640373  0.08703642    -0.39100
O3281       O  0.70921030  0.09406524  0.04476670    -0.39800
O3282       O  0.73778757  0.09238063  0.07736729    -0.39800
C3283       C  0.92615918  0.27712944  0.09467039    -0.12100
C3284       C  0.95566022  0.28094290  0.09427558     0.04900
C3285       C  0.96101696  0.26036885  0.07916253    -0.07400
C3286       C  0.93791311  0.23847127  0.06308465    -0.08200
C3287       C  0.90892133  0.23594973  0.06193559    -0.02700
C3288       C  0.90275369  0.25466523  0.07921246     0.04100
N3289       N  0.87293720  0.25116440  0.08159375     0.66600
H3290       H  0.92118437  0.29179847  0.10710361     0.15500
H3291       H  0.94320512  0.22397868  0.05069569     0.15200
N3292       N  0.99008292  0.26204250  0.07879593     0.74300
O3293       O  0.85580512  0.23546574  0.10100104    -0.39100
O3294       O  0.86647781  0.26868479  0.06852175    -0.39100
O3295       O  0.47069089  0.23398279  0.11865959    -0.39800
O3296       O  0.00829096  0.27581196  0.05935005    -0.39800
C3297       C  0.55754655  0.25702580  0.44130176    -0.12100
C3298       C  0.58620201  0.25867958  0.44166256     0.04900
C3299       C  0.59101550  0.23884098  0.42471420    -0.07400
C3300       C  0.56698424  0.21704362  0.40942013    -0.08200
C3301       C  0.53809278  0.21467358  0.41011257    -0.02700
C3302       C  0.53363346  0.23530702  0.42587342     0.04100
N3303       N  0.50464668  0.23370340  0.42767847     0.66600
H3304       H  0.55310634  0.27191671  0.45393189     0.15500
H3305       H  0.57100541  0.20180202  0.39687231     0.15200
N3306       N  0.62001229  0.24037520  0.42258248     0.74300
O3307       O  0.48610703  0.21726942  0.44595365    -0.39100
O3308       O  0.99589087  0.24608689  0.42651424    -0.39100
O3309       O  0.62433712  0.22095958  0.43483968    -0.39800
O3310       O  0.63798292  0.25587305  0.40355840    -0.39800
C3311       C  0.59751847  0.23354862  0.07232554    -0.12100
C3312       C  0.59218681  0.25666675  0.06301873     0.04900
C3313       C  0.56599456  0.25721068  0.07271062    -0.07400
C3314       C  0.54545002  0.23438145  0.09032953    -0.08200
C3315       C  0.55004092  0.21046754  0.09850663    -0.02700
C3316       C  0.57693164  0.21063144  0.08963887     0.04100
N3317       N  0.58393029  0.18774618  0.09779583     0.66600
H3318       H  0.61748808  0.23256095  0.06550926     0.15500
H3319       H  0.52526591  0.23486468  0.09704063     0.15200
N3320       N  0.55945049  0.28030228  0.06431974     0.74300
O3321       O  0.57738419  0.16590256  0.08195497    -0.39100
O3322       O  0.60295972  0.19318068  0.11668075    -0.39100
O3323       O  0.54263218  0.27622628  0.04383297    -0.39800
O3324       O  0.57320703  0.30588560  0.07529112    -0.39800
C3325       C  0.69392405  0.43592097  0.43913755    -0.12100
C3326       C  0.66744649  0.40764110  0.44000899     0.04900
C3327       C  0.64302573  0.40284466  0.42286939    -0.07400
C3328       C  0.64455406  0.42651646  0.40714340    -0.08200
C3329       C  0.67024830  0.45524007  0.40764749    -0.02700
C3330       C  0.69559121  0.45958526  0.42319063     0.04100
N3331       N  0.72256869  0.48810191  0.42448393     0.66600
H3332       H  0.71321048  0.44030326  0.45185330     0.15500
H3333       H  0.62530250  0.42232579  0.39443169     0.15200
N3334       N  0.61699648  0.37387276  0.42019459     0.74300
O3335       O  0.72289705  0.50819334  0.43976592    -0.39100
O3336       O  0.74747462  0.48995400  0.41721855    -0.39100
O3337       O  0.59211276  0.36878982  0.43094839    -0.39800
O3338       O  0.61707282  0.35660455  0.40175247    -0.39800
C3339       C  0.75290255  0.35407724  0.42029867    -0.12100
C3340       C  0.73438675  0.32712122  0.43451717     0.04900
C3341       C  0.73688347  0.30140963  0.42776606    -0.07400
C3342       C  0.75958527  0.30405369  0.40946959    -0.08200
C3343       C  0.77997790  0.33182002  0.39744513    -0.02700
C3344       C  0.77529940  0.35657725  0.40184130     0.04100
N3345       N  0.79213173  0.38410699  0.38700010     0.66600
H3346       H  0.75047939  0.37376809  0.42380003     0.15500
H3347       H  0.76213473  0.28446067  0.40578932     0.15200
N3348       N  0.71753767  0.27269022  0.43992073     0.74300
O3349       O  0.78301516  0.38633452  0.36346919    -0.39100
O3350       O  0.80912191  0.40776107  0.40001562    -0.39100
O3351       O  0.69584340  0.25307318  0.42609737    -0.39800
O3352       O  0.72657072  0.26463615  0.46079062    -0.39800
C3353       C  0.64559163  0.39235242  0.08634467    -0.12100
C3354       C  0.66593312  0.40466565  0.06420095     0.04900
C3355       C  0.68588672  0.43607586  0.06367390    -0.07400
C3356       C  0.68471019  0.45427725  0.08472164    -0.08200
C3357       C  0.66405063  0.44196589  0.10662115    -0.02700
C3358       C  0.64457172  0.41056246  0.10739073     0.04100
N3359       N  0.62403732  0.39651564  0.12971896     0.66600
H3360       H  0.63041069  0.36832418  0.08746662     0.15500
H3361       H  0.69915655  0.47838234  0.08329544     0.15200
N3362       N  0.70607808  0.45020547  0.04103916     0.74300
O3363       O  0.59597552  0.38587936  0.12561702    -0.39100
O3364       O  0.63265288  0.38673997  0.14965628    -0.39100
O3365       O  0.69884123  0.46300668  0.02265094    -0.39800
O3366       O  0.73327638  0.45571567  0.04265049    -0.39800
C3367       C  0.74836307  0.35167921  0.08345531    -0.12100
C3368       C  0.73805820  0.32929734  0.06320228     0.04900
C3369       C  0.74832197  0.30795894  0.06372639    -0.07400
C3370       C  0.76923013  0.31013771  0.08359386    -0.08200
C3371       C  0.78007709  0.33299624  0.10320509    -0.02700
C3372       C  0.76922060  0.35369932  0.10330499     0.04100
N3373       N  0.77843255  0.37636151  0.12384749     0.66600
H3374       H  0.74042032  0.36792881  0.08379857     0.15500
H3375       H  0.77801045  0.29458529  0.08300842     0.15200
N3376       N  0.73936542  0.28510229  0.04333510     0.74300
O3377       O  0.79891544  0.40276330  0.11827837    -0.39100
O3378       O  0.76122184  0.37191594  0.14424624    -0.39100
O3379       O  0.75855778  0.28671508  0.02573854    -0.39800
O3380       O  0.71500373  0.26062389  0.04657064    -0.39800
Fe3381     Fe  0.70410778  0.36707759  0.49782569     1.65800
Fe3382     Fe  0.62729621  0.33247512  0.00283597     1.73200
Fe3383     Fe  0.66490075  0.29215180  0.00177149     1.54400
O3384       O  0.69279890  0.30337561  0.96774206    -0.81500
O3385       O  0.61128031  0.30671196  0.53491776    -0.79800
O3386       O  0.72405020  0.35175137  0.97577593    -0.84000
O3387       O  0.72406722  0.34904312  0.52271631    -0.78900
O3388       O  0.62834660  0.27232921  0.97576987    -0.80700
O3389       O  0.64641556  0.37190619  0.52559052    -0.83400
C3390       C  0.71642147  0.32444690  0.53517069     0.97400
C3391       C  0.71713578  0.32758132  0.96294999     1.04800
O3392       O  0.66537354  0.33103314  0.00227664    -1.12400
O3393       O  0.64333628  0.36857586  0.97538605    -0.74800
O3394       O  0.69288765  0.38585111  0.96922420    -0.78300
O3395       O  0.69119694  0.30098172  0.53127245    -0.79000
C3396       C  0.66839801  0.38580151  0.96327902     0.96300
O3397       O  0.69500770  0.38510248  0.53219443    -0.77000
O3398       O  0.61021719  0.30385674  0.96974382    -0.82200
C3399       C  0.61076211  0.28193738  0.53983643     0.98900
C3400       C  0.61062809  0.27976462  0.96402991     1.04800
O3401       O  0.62662418  0.27343577  0.52605295    -0.77800
C3402       C  0.67187670  0.38805909  0.53717850     1.03100
Fe3403     Fe  0.87099942  0.16298967  0.00033165     1.65800
Fe3404     Fe  0.79628959  0.12912856  0.50253846     1.73200
Fe3405     Fe  0.83519785  0.20470607  0.50030550     1.54400
O3406       O  0.86455133  0.22034381  0.53306629    -0.81500
O3407       O  0.77446110  0.14778600  0.97503113    -0.79800
O3408       O  0.89624081  0.20311778  0.52273230    -0.84000
O3409       O  0.88765382  0.19084966  0.96607525    -0.78900
O3410       O  0.79891851  0.19019045  0.52755286    -0.80700
O3411       O  0.80622518  0.11393204  0.96442118    -0.83400
C3412       C  0.88971241  0.21660112  0.96328985     0.97400
C3413       C  0.88982628  0.22085967  0.53579864     1.04800
O3414       O  0.83487789  0.16634768  0.50046215    -1.12400
O3415       O  0.81320541  0.10779196  0.52734969    -0.74800
O3416       O  0.86208767  0.13923528  0.53467096    -0.78300
O3417       O  0.87346168  0.22457547  0.97741526    -0.79000
C3418       C  0.83761478  0.11531137  0.54043285     0.96300
O3419       O  0.85349565  0.12539908  0.97504487    -0.77000
O3420       O  0.78390623  0.14236155  0.53740186    -0.82200
C3421       C  0.78293716  0.17343501  0.96423788     0.98900
C3422       C  0.78288883  0.16631528  0.54136756     1.04800
O3423       O  0.80825133  0.19634431  0.96936717    -0.77800
C3424       C  0.82919147  0.11024225  0.96152535     1.03100
C3425       C  0.97547423  0.50166803  0.63318886     0.02400
C3426       C  0.00385435  0.02530296  0.62728609     0.02400
C3427       C  0.52829782  0.02643955  0.63763434     0.02400
C3428       C  0.53231457  0.49731607  0.62775745     0.02400
C3429       C  0.00152991  0.47197918  0.62711028     0.02400
C3430       C  0.97427420  0.47320180  0.63166651     0.02400
C3431       C  0.81227778  0.48415693  0.64287314     0.80400
N3432       N  0.83961650  0.48531553  0.64362328    -0.77900
C3433       C  0.86334445  0.50609607  0.62895066     0.82800
N3434       N  0.86088629  0.02247821  0.61375861    -0.77900
C3435       C  0.83414557  0.02275311  0.61265727     0.82900
N3436       N  0.80853075  0.50436982  0.62708517    -0.79600
C3437       C  0.69305693  0.02618293  0.63696403     0.80400
N3438       N  0.66453016  0.02174815  0.64082483    -0.77900
C3439       C  0.64358835  0.49111326  0.63709204     0.82800
N3440       N  0.64789614  0.47324287  0.61927752    -0.77900
C3441       C  0.67474395  0.47329305  0.61758917     0.82900
N3442       N  0.69825530  0.49245912  0.63386821    -0.79600
C3443       C  0.69210396  0.16661692  0.61390068     0.80400
N3444       N  0.69570162  0.19074654  0.62860037    -0.77900
C3445       C  0.67280063  0.18847015  0.64505149     0.82800
N3446       N  0.64636286  0.16196700  0.64688540    -0.77900
C3447       C  0.64267725  0.13778188  0.63241521     0.82900
N3448       N  0.66553937  0.14038247  0.61605533    -0.79600
C3449       C  0.97830787  0.16553035  0.64275627     0.80400
N3450       N  0.99842702  0.18893603  0.62679057    -0.77900
C3451       C  0.52975385  0.19408206  0.62054968     0.82800
N3452       N  0.53155500  0.16861980  0.62436682    -0.77900
C3453       C  0.00372352  0.13851820  0.63144761     0.82900
N3454       N  0.98130505  0.14052576  0.64502591    -0.79600
C3455       C  0.81124891  0.33052055  0.60486605     0.80400
N3456       N  0.80724160  0.30798510  0.62227338    -0.77900
C3457       C  0.82879342  0.31248348  0.64105389     0.82800
N3458       N  0.85431819  0.33951195  0.64250773    -0.77900
C3459       C  0.85877873  0.36234940  0.62530911     0.82900
N3460       N  0.83705966  0.35765016  0.60644673    -0.79600
C3461       C  0.53719617  0.33313797  0.62182901     0.80400
N3462       N  0.53659523  0.35933333  0.62422624    -0.77900
C3463       C  0.01075451  0.36377528  0.61432053     0.82800
N3464       N  0.98874883  0.34039526  0.60044979    -0.77900
C3465       C  0.98900847  0.31405919  0.59775356     0.82900
N3466       N  0.01203209  0.31127108  0.60935109    -0.79600
Fe3467     Fe  0.83442850  0.13145952  0.74882923     1.65800
Fe3468     Fe  0.78975260  0.16450460  0.74952875     1.73200
Fe3469     Fe  0.86681842  0.20788713  0.74807462     1.54400
O3470       O  0.88591569  0.19747387  0.78087243    -0.81500
O3471       O  0.80168945  0.20119054  0.72363081    -0.79800
O3472       O  0.86833893  0.14810510  0.77781682    -0.84000
O3473       O  0.86488835  0.14708043  0.71720358    -0.78900
O3474       O  0.84810968  0.22510409  0.77571146    -0.80700
O3475       O  0.77697246  0.13693321  0.71571876    -0.83400
C3476       C  0.88658263  0.17219695  0.70962642     0.97400
C3477       C  0.88530122  0.17339870  0.78874971     1.04800
O3478       O  0.83034538  0.16793710  0.74903755    -1.12400
O3479       O  0.77140872  0.12757416  0.77590029    -0.74800
O3480       O  0.80418609  0.11057072  0.78022650    -0.78300
O3481       O  0.89095262  0.19669507  0.72013444    -0.79000
C3482       C  0.77946684  0.10972749  0.78645513     0.96300
O3483       O  0.80097885  0.11032570  0.71993447    -0.77000
O3484       O  0.79920103  0.19217636  0.78309112    -0.82200
C3485       C  0.82563260  0.22018071  0.71116415     0.98900
C3486       C  0.82302407  0.21675730  0.78820833     1.04800
O3487       O  0.85139868  0.22228455  0.71527166    -0.77800
C3488       C  0.78168863  0.11566852  0.70825646     1.03100
Fe3489     Fe  0.63090113  0.29353993  0.74703013     1.65800
Fe3490     Fe  0.70791353  0.33680245  0.74921843     1.73200
Fe3491     Fe  0.66302360  0.36923476  0.74478110     1.54400
O3492       O  0.63811509  0.35371239  0.70950886    -0.81500
O3493       O  0.72356100  0.37297709  0.77628662    -0.79800
O3494       O  0.60812993  0.30521705  0.71846421    -0.84000
O3495       O  0.61121406  0.30392096  0.77895554    -0.78900
O3496       O  0.70116244  0.39279215  0.72069123    -0.80700
O3497       O  0.69683058  0.30824952  0.78290590    -0.83400
C3498       C  0.60707637  0.32638560  0.78094919     0.97400
C3499       C  0.61539430  0.32843468  0.70391529     1.04800
O3500       O  0.66740082  0.33323632  0.74734223    -1.12400
O3501       O  0.69663153  0.30133175  0.72209501    -0.74800
O3502       O  0.64680926  0.27948998  0.71493065    -0.78300
O3503       O  0.62340853  0.35092196  0.76818098    -0.79000
C3504       C  0.67271702  0.28258730  0.70951572     0.96300
O3505       O  0.64832111  0.27585728  0.77520698    -0.77000
O3506       O  0.72427252  0.36560344  0.71580506    -0.82200
C3507       C  0.71384672  0.38969663  0.78669357     0.98900
C3508       C  0.72157262  0.38839980  0.70992485     1.04800
O3509       O  0.68890342  0.38822430  0.77949644    -0.77800
C3510       C  0.67281158  0.28382911  0.78827852     1.03100
C3511       C  0.52930034  0.00032254  0.86887385     0.02400
C3512       C  0.49873088  0.47200956  0.85628593     0.02400
C3513       C  0.96884419  0.47279818  0.85581325     0.02400
C3514       C  0.97320930  0.00489665  0.85819716     0.02400
C3515       C  0.50162208  0.02858052  0.86896624     0.02400
C3516       C  0.52964341  0.02834421  0.86856072     0.02400
C3517       C  0.69275794  0.02035189  0.86093019     0.80400
N3518       N  0.66559322  0.01944149  0.86146308    -0.77900
C3519       C  0.64176840  0.99760692  0.87517517     0.82800
N3520       N  0.64409271  0.47696107  0.88804583    -0.77900
C3521       C  0.67157063  0.47856477  0.89142088     0.82900
N3522       N  0.69603258  0.99839954  0.87414083    -0.79600
C3523       C  0.80350653  0.47965520  0.85738727     0.80400
N3524       N  0.80460834  0.00537612  0.86629855    -0.77900
C3525       C  0.82748225  0.02386921  0.88355630     0.82800
N3526       N  0.85444911  0.02395526  0.88268685    -0.77900
C3527       C  0.85913008  0.00623688  0.86504785     0.82900
N3528       N  0.83074113  0.48065617  0.85422416    -0.79600
C3529       C  0.97749551  0.17367152  0.85774063     0.80400
N3530       N  0.97796119  0.14730918  0.85630375    -0.77900
C3531       C  0.99924464  0.14347915  0.86985889     0.82800
N3532       N  0.51613380  0.16179163  0.89666536    -0.77900
C3533       C  0.51602616  0.18839604  0.89807586     0.82900
N3534       N  0.99850498  0.19641819  0.87322199    -0.79600
C3535       C  0.69257345  0.17347619  0.89293396     0.80400
N3536       N  0.69371170  0.19678617  0.87813919    -0.77900
C3537       C  0.66957343  0.19243220  0.86238775     0.82800
N3538       N  0.64498533  0.16465028  0.86146570    -0.77900
C3539       C  0.64347538  0.14126889  0.87595793     0.82900
N3540       N  0.66740472  0.14588641  0.89185409    -0.79600
C3541       C  0.51473744  0.32519364  0.85178156     0.80400
N3542       N  0.51366763  0.35115003  0.84906746    -0.77900
C3543       C  0.49392144  0.35619202  0.86382704     0.82800
N3544       N  0.97516944  0.33496984  0.88919859    -0.77900
C3545       C  0.97838055  0.31008603  0.89173381     0.82900
N3546       N  0.49546073  0.30370673  0.86983180    -0.79600
C3547       C  0.81101975  0.33147463  0.89128752     0.80400
N3548       N  0.80719350  0.30698802  0.87689780    -0.77900
C3549       C  0.82987895  0.30893860  0.86026810     0.82800
N3550       N  0.85581224  0.33553492  0.85744158    -0.77900
C3551       C  0.85966855  0.35987714  0.87157498     0.82900
N3552       N  0.83732922  0.35779549  0.88839219    -0.79600
C3553       C  0.99410106  0.07245953  0.84105049    -0.12100
C3554       C  0.50068168  0.05724297  0.87300907     0.04900
C3555       C  0.51017032  0.07395143  0.89768443    -0.07400
C3556       C  0.50855825  0.10068705  0.89996040    -0.08200
C3557       C  0.00012912  0.11508511  0.86757101    -0.02700
C3558       C  0.99372866  0.09956274  0.84254275     0.04100
N3559       N  0.98931602  0.11231379  0.81794455     0.66600
H3560       H  0.98982352  0.06117209  0.82154272     0.15500
H3561       H  0.51574383  0.11341626  0.91883862     0.15200
N3562       N  0.52061974  0.06383885  0.92076822     0.74300
O3563       O  0.01135852  0.13514982  0.80719373    -0.39100
O3564       O  0.96311963  0.10186439  0.80782633    -0.39100
O3565       O  0.54030814  0.08269613  0.93673986    -0.39800
O3566       O  0.50842541  0.03624665  0.92673942    -0.39800
C3567       C  0.57874606  0.06235970  0.89229784    -0.12100
C3568       C  0.55930926  0.05716667  0.86979756     0.04900
C3569       C  0.56845757  0.07959342  0.84919065    -0.07400
C3570       C  0.59616451  0.10613693  0.85163360    -0.08200
C3571       C  0.61549372  0.11144872  0.87409233    -0.02700
C3572       C  0.60680304  0.08881614  0.89432781     0.04100
N3573       N  0.62594976  0.09233090  0.91716159     0.66600
H3574       H  0.57190958  0.04587590  0.90866227     0.15500
H3575       H  0.60277676  0.12262812  0.83536937     0.15200
N3576       N  0.55012586  0.07625449  0.82564363     0.74300
O3577       O  0.62608353  0.10735098  0.93775892    -0.39100
O3578       O  0.64488835  0.08295494  0.91557404    -0.39100
O3579       O  0.54479642  0.09724955  0.81930337    -0.39800
O3580       O  0.54616332  0.05684475  0.80778730    -0.39800
C3581       C  0.89577241  0.40006191  0.84082097    -0.12100
C3582       C  0.88726464  0.38872600  0.86754999     0.04900
C3583       C  0.90455754  0.40566623  0.88992834    -0.07400
C3584       C  0.92993786  0.43355549  0.88520135    -0.08200
C3585       C  0.93934809  0.44461665  0.85856254    -0.02700
C3586       C  0.92166767  0.42787793  0.83602652     0.04100
N3587       N  0.92875671  0.43872236  0.80838096     0.66600
H3588       H  0.88211501  0.38728273  0.82355552     0.15500
H3589       H  0.94289156  0.44659117  0.90249801     0.15200
N3590       N  0.89809696  0.39404546  0.91734849     0.74300
O3591       O  0.94762630  0.43433200  0.79492720    -0.39100
O3592       O  0.90938576  0.44255624  0.79525924    -0.39100
O3593       O  0.90410419  0.37359754  0.92403456    -0.39800
O3594       O  0.89469199  0.40930555  0.93597801    -0.39800
C3595       C  0.92500242  0.49417294  0.88219821    -0.12100
C3596       C  0.94446916  0.00660514  0.85902546     0.04900
C3597       C  0.92599089  0.00144415  0.83574961    -0.07400
C3598       C  0.89852137  0.00171077  0.83837681    -0.08200
C3599       C  0.88872670  0.00688530  0.86373854    -0.02700
C3600       C  0.89764574  0.49433279  0.88590866     0.04100
N3601       N  0.88249575  0.48537432  0.91185295     0.66600
H3602       H  0.93429518  0.48784840  0.89931801     0.15500
H3603       H  0.88494278  0.99826057  0.82022241     0.15200
N3604       N  0.93433354  0.99573977  0.80926719     0.74300
O3605       O  0.86115859  0.45884458  0.91500610    -0.39100
O3606       O  0.89446760  0.50140349  0.93269094    -0.39100
O3607       O  0.95353710  0.01758471  0.79511086    -0.39800
O3608       O  0.91597937  0.97199602  0.79704211    -0.39800
C3609       C  0.60440999  0.00506999  0.84928220    -0.12100
C3610       C  0.61249812  0.99694606  0.87402450     0.04900
C3611       C  0.58982090  0.48775567  0.89002700    -0.07400
C3612       C  0.56258649  0.48793111  0.88495437    -0.08200
C3613       C  0.55821108  0.99932077  0.87010128    -0.02700
C3614       C  0.57752629  0.00624478  0.84701251     0.04100
N3615       N  0.57064524  0.01479947  0.82115522     0.66600
H3616       H  0.61906025  0.01039944  0.83138211     0.15500
H3617       H  0.54748854  0.48459764  0.90187480     0.15200
N3618       N  0.59615545  0.48164855  0.91719702     0.74300
O3619       O  0.55156203  0.99473715  0.80566928    -0.39100
O3620       O  0.58984053  0.03954040  0.81059836    -0.39100
O3621       O  0.61592246  0.50264382  0.93149485    -0.39800
O3622       O  0.58543123  0.45479658  0.92522551    -0.39800
C3623       C  0.50438368  0.43048318  0.83621769    -0.12100
C3624       C  0.49629184  0.44174014  0.85899065     0.04900
C3625       C  0.99731992  0.43057959  0.89012452    -0.07400
C3626       C  0.99476603  0.40198299  0.89201897    -0.08200
C3627       C  0.49406680  0.38522102  0.86137289    -0.02700
C3628       C  0.50322073  0.40257939  0.83700271     0.04100
N3629       N  0.51021337  0.39184798  0.81243726     0.66600
H3630       H  0.51062087  0.44302323  0.81724996     0.15500
H3631       H  0.99776692  0.39395589  0.91177451     0.15200
N3632       N  0.00335421  0.44775953  0.91474922     0.74300
O3633       O  0.48918070  0.37659764  0.79578963    -0.39100
O3634       O  0.53746810  0.40356305  0.80438185    -0.39100
O3635       O  0.02845835  0.45614316  0.92648268    -0.39800
O3636       O  0.98116900  0.44431530  0.92934880    -0.39800
C3637       C  0.64529270  0.23603879  0.81434193    -0.12100
C3638       C  0.67261618  0.26276616  0.80978830     0.04900
C3639       C  0.69859222  0.26726236  0.82463450    -0.07400
C3640       C  0.69699987  0.24455760  0.84221716    -0.08200
C3641       C  0.66985279  0.21718452  0.84562749    -0.02700
C3642       C  0.64353656  0.21356032  0.83180328     0.04100
N3643       N  0.61461411  0.18705488  0.83458196     0.66600
H3644       H  0.62475219  0.23196012  0.80382247     0.15500
H3645       H  0.71738797  0.24823481  0.85276058     0.15200
N3646       N  0.72685408  0.29445385  0.82201630     0.74300
O3647       O  0.59639761  0.18609699  0.85291816    -0.39100
O3648       O  0.60440632  0.16918948  0.81460199    -0.39100
O3649       O  0.73316362  0.31542163  0.83885338    -0.39800
O3650       O  0.74774510  0.29483614  0.80738290    -0.39800
C3651       C  0.57583542  0.30854739  0.82358676    -0.12100
C3652       C  0.58189804  0.32369666  0.79830740     0.04900
C3653       C  0.56333103  0.33560254  0.78967211    -0.07400
C3654       C  0.54057981  0.33397048  0.80705718    -0.08200
C3655       C  0.53589820  0.32102457  0.83340025    -0.02700
C3656       C  0.55324574  0.30729929  0.84135240     0.04100
N3657       N  0.54965305  0.29339066  0.86762452     0.66600
H3658       H  0.58965028  0.29879610  0.83014350     0.15500
H3659       H  0.52675766  0.34349883  0.79996574     0.15200
N3660       N  0.56676368  0.34884114  0.76304249     0.74300
O3661       O  0.54480788  0.26668368  0.86869891    -0.39100
O3662       O  0.56038512  0.30980750  0.88844591    -0.39100
O3663       O  0.55013085  0.33304557  0.74367986    -0.39800
O3664       O  0.58068479  0.37707846  0.76061745    -0.39800
C3665       C  0.75922989  0.46321562  0.82581230    -0.12100
C3666       C  0.77668935  0.45569197  0.84314045     0.04900
C3667       C  0.77074532  0.42561130  0.84393796    -0.07400
C3668       C  0.74934832  0.40429055  0.82618186    -0.08200
C3669       C  0.73310187  0.41207944  0.80761252    -0.02700
C3670       C  0.73762447  0.44176631  0.80802964     0.04100
N3671       N  0.72257285  0.45125609  0.78887421     0.66600
H3672       H  0.76369555  0.48624223  0.82480803     0.15500
H3673       H  0.74575843  0.38153887  0.82663635     0.15200
N3674       N  0.78606778  0.41625628  0.86294899     0.74300
O3675       O  0.70093006  0.45507959  0.79701917    -0.39100
O3676       O  0.73482342  0.46176713  0.76584590    -0.39100
O3677       O  0.77382176  0.40546947  0.88591608    -0.39800
O3678       O  0.80780470  0.41263833  0.85469195    -0.39800
C3679       C  0.92417516  0.15106211  0.84315609    -0.12100
C3680       C  0.95325334  0.17629258  0.84317889     0.04900
C3681       C  0.95838438  0.20202347  0.82799926    -0.07400
C3682       C  0.93504184  0.20126051  0.81195597    -0.08200
C3683       C  0.90673045  0.17513110  0.81023986    -0.02700
C3684       C  0.90103400  0.15023333  0.82694062     0.04100
N3685       N  0.87175824  0.12412913  0.82821474     0.66600
H3686       H  0.91948696  0.13147473  0.85543024     0.15500
H3687       H  0.93989480  0.22059905  0.79925135     0.15200
N3688       N  0.98757696  0.22822445  0.82657089     0.74300
O3689       O  0.86694857  0.10118511  0.81466566    -0.39100
O3690       O  0.85443976  0.12130885  0.84809608    -0.39100
O3691       O  0.00754151  0.22814044  0.81091544    -0.39800
O3692       O  0.98989789  0.25307127  0.83349913    -0.39800
C3693       C  0.74042576  0.09392016  0.82312269    -0.12100
C3694       C  0.75901126  0.08703707  0.80667694     0.04900
C3695       C  0.75678019  0.05834436  0.80930541    -0.07400
C3696       C  0.73550011  0.03706802  0.82750709    -0.08200
C3697       C  0.71715824  0.04413858  0.84411694    -0.02700
C3698       C  0.71987481  0.07304513  0.84185458     0.04100
N3699       N  0.70175206  0.08159056  0.85824948     0.66600
H3700       H  0.74190836  0.11578725  0.82151823     0.15500
H3701       H  0.73312488  0.01478304  0.82845094     0.15200
N3702       N  0.77531371  0.05005165  0.79328235     0.74300
O3703       O  0.71109328  0.09293239  0.88160838    -0.39100
O3704       O  0.68032384  0.08383411  0.84723968    -0.39100
O3705       O  0.79777339  0.04981064  0.80436257    -0.39800
O3706       O  0.76507072  0.03607521  0.77109672    -0.39800
C3707       C  0.79968903  0.26512393  0.83011425    -0.12100
C3708       C  0.82657985  0.28287935  0.84456661     0.04900
C3709       C  0.85112072  0.27709312  0.84187769    -0.07400
C3710       C  0.84866251  0.25435285  0.82449140    -0.08200
C3711       C  0.82227257  0.23724190  0.80919398    -0.02700
C3712       C  0.79738030  0.24250785  0.81231021     0.04100
N3713       N  0.77032438  0.22634531  0.79654456     0.66600
H3714       H  0.78079645  0.26954283  0.83184697     0.15500
H3715       H  0.86795856  0.25058814  0.82238819     0.15200
N3716       N  0.87894700  0.29440559  0.85633232     0.74300
O3717       O  0.74768114  0.20386344  0.80702743    -0.39100
O3718       O  0.76684718  0.23816226  0.77502858    -0.39100
O3719       O  0.88382971  0.28389238  0.87803878    -0.39800
O3720       O  0.90088421  0.31619669  0.84429550    -0.39800
C3721       C  0.60749030  0.35157894  0.66217189    -0.12100
C3722       C  0.59659995  0.32659062  0.67987584     0.04900
C3723       C  0.56765925  0.30150223  0.67472614    -0.07400
C3724       C  0.54964133  0.30300970  0.65367407    -0.08200
C3725       C  0.55961396  0.32920087  0.63790012    -0.02700
C3726       C  0.58932107  0.35316514  0.64149158     0.04100
N3727       N  0.60133469  0.37948167  0.62453453     0.66600
H3728       H  0.62997912  0.37063645  0.66486240     0.15500
H3729       H  0.52681608  0.28444265  0.65112258     0.15200
N3730       N  0.55511976  0.27521289  0.69172191     0.74300
O3731       O  0.60395929  0.40350379  0.63430240    -0.39100
O3732       O  0.61635765  0.38076827  0.60330922    -0.39100
O3733       O  0.53855414  0.27343665  0.71192802    -0.39800
O3734       O  0.55396380  0.25154509  0.68262788    -0.39800
C3735       C  0.81653978  0.26318765  0.70324611    -0.12100
C3736       C  0.82386045  0.24198782  0.69237759     0.04900
C3737       C  0.83171258  0.24366770  0.66437294    -0.07400
C3738       C  0.83238083  0.26641912  0.64776431    -0.08200
C3739       C  0.82558877  0.28778023  0.65871849    -0.02700
C3740       C  0.81774606  0.28628886  0.68665952     0.04100
N3741       N  0.81163283  0.30845260  0.69843994     0.66600
H3742       H  0.81089936  0.26238323  0.72485220     0.15500
H3743       H  0.83869465  0.26769856  0.62628894     0.15200
N3744       N  0.83890217  0.22236967  0.65244335     0.74300
O3745       O  0.78589194  0.30647510  0.69537055    -0.39100
O3746       O  0.83316715  0.33220816  0.70811137    -0.39100
O3747       O  0.81849757  0.20012878  0.63984322    -0.39800
O3748       O  0.86637559  0.22973752  0.64835074    -0.39800
C3749       C  0.90567789  0.14358854  0.68318598    -0.12100
C3750       C  0.90824918  0.17163005  0.68913230     0.04900
C3751       C  0.93258891  0.19757618  0.67719916    -0.07400
C3752       C  0.95475767  0.19506000  0.66164236    -0.08200
C3753       C  0.95310860  0.16702347  0.65736127    -0.02700
C3754       C  0.92750337  0.14098752  0.66775080     0.04100
N3755       N  0.92316694  0.11145970  0.66358592     0.66600
H3756       H  0.88700242  0.12307762  0.69142711     0.15500
H3757       H  0.97375724  0.21535258  0.65350063     0.15200
N3758       N  0.93504782  0.22651893  0.68017408     0.74300
O3759       O  0.92842385  0.09857918  0.68327891    -0.39100
O3760       O  0.90516854  0.09548579  0.64509222    -0.39100
O3761       O  0.95465777  0.24525468  0.69624345    -0.39800
O3762       O  0.92389532  0.23576127  0.66188959    -0.39800
C3763       C  0.70018747  0.25790938  0.68932546    -0.12100
C3764       C  0.67458929  0.26196940  0.68914918     0.04900
C3765       C  0.64998022  0.24361680  0.67175813    -0.07400
C3766       C  0.65037846  0.22025388  0.65725425    -0.08200
C3767       C  0.67508529  0.21501817  0.65902627    -0.02700
C3768       C  0.70062095  0.23469039  0.67449276     0.04100
N3769       N  0.72643408  0.23043003  0.67686335     0.66600
H3770       H  0.71943032  0.27175025  0.70222638     0.15500
H3771       H  0.63101795  0.20588918  0.64464914     0.15200
N3772       N  0.62425476  0.24803161  0.66860243     0.74300
O3773       O  0.75057874  0.24855114  0.66456245    -0.39100
O3774       O  0.72791523  0.21549333  0.69693549    -0.39100
O3775       O  0.62296288  0.26226127  0.64785268    -0.39800
O3776       O  0.60013085  0.23119903  0.68166900    -0.39800
C3777       C  0.74495762  0.05082313  0.65749692    -0.12100
C3778       C  0.71881698  0.05233976  0.65041575     0.04900
C3779       C  0.71637807  0.07751186  0.65920287    -0.07400
C3780       C  0.73799887  0.09850447  0.67677664    -0.08200
C3781       C  0.76259564  0.09543121  0.68606049    -0.02700
C3782       C  0.76682056  0.07201030  0.67511338     0.04100
N3783       N  0.79274541  0.06893991  0.68186576     0.66600
H3784       H  0.74774718  0.03241273  0.65050023     0.15500
H3785       H  0.73481301  0.11690090  0.68374463     0.15200
N3786       N  0.69252004  0.08276994  0.65009024     0.74300
O3787       O  0.79194403  0.05397510  0.70285737    -0.39100
O3788       O  0.81334298  0.07548927  0.66407616    -0.39100
O3789       O  0.67311945  0.08148000  0.66725325    -0.39800
O3790       O  0.69656669  0.09757884  0.62826288    -0.39800
C3791       C  0.74749412  0.44105118  0.69304382    -0.12100
C3792       C  0.74366213  0.41188449  0.69103369     0.04900
C3793       C  0.76196780  0.40672963  0.67214921    -0.07400
C3794       C  0.78333956  0.43050351  0.65599691    -0.08200
C3795       C  0.78722206  0.45960832  0.65834899    -0.02700
C3796       C  0.76925774  0.46478379  0.67725261     0.04100
N3797       N  0.77293146  0.49402752  0.68094049     0.66600
H3798       H  0.73411943  0.44583327  0.70756470     0.15500
H3799       H  0.79735025  0.42626197  0.64174626     0.15200
N3800       N  0.75947010  0.37775123  0.66911471     0.74300
O3801       O  0.75311365  0.49949429  0.67109556    -0.39100
O3802       O  0.75888474  0.99569716  0.67513934    -0.39100
O3803       O  0.74520427  0.36173864  0.64887709    -0.39800
O3804       O  0.77751682  0.37176774  0.68204715    -0.39800
C3805       C  0.57454471  0.06359504  0.61309802    -0.12100
C3806       C  0.55862973  0.05428225  0.63796875     0.04900
C3807       C  0.57154750  0.07186155  0.66174532    -0.07400
C3808       C  0.59868477  0.09929995  0.65937109    -0.08200
C3809       C  0.61396322  0.10894465  0.63407738    -0.02700
C3810       C  0.60190742  0.09038994  0.61090144     0.04100
N3811       N  0.61629434  0.09893268  0.58455748     0.66600
H3812       H  0.56523889  0.05035282  0.59498303     0.15500
H3813       H  0.60835500  0.11269100  0.67757738     0.15200
N3814       N  0.55879677  0.06176457  0.68858762     0.74300
O3815       O  0.62991239  0.08564311  0.57521636    -0.39100
O3816       O  0.60883878  0.11350627  0.56829939    -0.39100
O3817       O  0.56653853  0.04536397  0.70190577    -0.39800
O3818       O  0.55003047  0.07727571  0.70199235    -0.39800
C3819       C  0.50144780  0.07063696  0.66356825    -0.12100
C3820       C  0.00321876  0.05416657  0.62751184     0.04900
C3821       C  0.00898745  0.07227087  0.60379024    -0.07400
C3822       C  0.00949985  0.09983752  0.60588810    -0.08200
C3823       C  0.00453240  0.10998380  0.63111872    -0.02700
C3824       C  0.50507687  0.09953628  0.66526151     0.04100
N3825       N  0.50435666  0.11127433  0.69171101     0.66600
H3826       H  0.49829004  0.05795375  0.68212025     0.15500
H3827       H  0.01301798  0.11302681  0.58743470     0.15200
N3828       N  0.01312476  0.06281068  0.57721673     0.74300
O3829       O  0.48031074  0.09857880  0.70591105    -0.39100
O3830       O  0.52912694  0.12827393  0.70347474    -0.39100
O3831       O  0.03907146  0.07653225  0.56617388    -0.39800
O3832       O  0.99042040  0.05005245  0.56167381    -0.39800
C3833       C  0.57158986  0.00152203  0.65586130    -0.12100
C3834       C  0.56173878  0.49699991  0.62903423     0.04900
C3835       C  0.57723276  0.49470681  0.60569578    -0.07400
C3836       C  0.60367908  0.49266426  0.60916016    -0.08200
C3837       C  0.61538055  0.49306213  0.63534303    -0.02700
C3838       C  0.59911308  0.00132150  0.65629928     0.04100
N3839       N  0.61484522  0.00637090  0.68176470     0.66600
H3840       H  0.56247802  0.00470349  0.67478193     0.15500
H3841       H  0.61536311  0.49104778  0.59105519     0.15200
N3842       N  0.56652774  0.49366284  0.57837281     0.74300
O3843       O  0.62626223  0.03199595  0.69261790    -0.39100
O3844       O  0.61017053  0.98408391  0.69646315    -0.39100
O3845       O  0.55891341  0.47014058  0.56464484    -0.39800
O3846       O  0.57557548  0.51803635  0.56542906    -0.39800
C3847       C  0.01496881  0.43422183  0.64468133    -0.12100
C3848       C  0.00140277  0.44279200  0.62397984     0.04900
C3849       C  0.49535525  0.42447041  0.59869828    -0.07400
C3850       C  0.49867938  0.39895347  0.59586925    -0.08200
C3851       C  0.00841435  0.39133427  0.61806502    -0.02700
C3852       C  0.01902462  0.40918200  0.64182344     0.04100
N3853       N  0.03296391  0.40175708  0.66375601     0.66600
H3854       H  0.02250852  0.44716726  0.66337593     0.15500
H3855       H  0.49123388  0.38617811  0.57702309     0.15200
N3856       N  0.48210336  0.43253489  0.57656793     0.74300
O3857       O  0.06155702  0.41465225  0.66494329    -0.39100
O3858       O  0.01753625  0.38893013  0.68497014    -0.39100
O3859       O  0.49919037  0.45271213  0.55981560    -0.39800
O3860       O  0.45547514  0.41402811  0.56919733    -0.39800
C3861       C  0.92484363  0.44069325  0.60961498    -0.12100
C3862       C  0.94422775  0.44515677  0.63169159     0.04900
C3863       C  0.93495627  0.42256319  0.65215276    -0.07400
C3864       C  0.90682272  0.39633857  0.64978172    -0.08200
C3865       C  0.88741118  0.39170512  0.62740677    -0.02700
C3866       C  0.89676889  0.41466426  0.60732783     0.04100
N3867       N  0.87931202  0.41150534  0.58339734     0.66600
H3868       H  0.93214425  0.45715070  0.59318140     0.15500
H3869       H  0.90032303  0.37937634  0.66569894     0.15200
N3870       N  0.95371137  0.42521254  0.67515670     0.74300
O3871       O  0.86115974  0.42188987  0.58365150    -0.38300
O3872       O  0.88884794  0.40754427  0.56063370    -0.39100
O3873       O  0.96059871  0.40484314  0.67931782    -0.39800
O3874       O  0.95539091  0.44183053  0.69494397    -0.39800
C3875       C  0.90066765  0.99127299  0.65181935    -0.12100
C3876       C  0.89265921  0.50656363  0.63001181     0.04900
C3877       C  0.91090506  0.51215774  0.60644546    -0.07400
C3878       C  0.93783180  0.51078703  0.60823462    -0.08200
C3879       C  0.94708977  0.50392622  0.63314467    -0.02700
C3880       C  0.92816056  0.99080784  0.65329750     0.04100
N3881       N  0.93628252  0.98285589  0.67881739     0.66600
H3882       H  0.88633509  0.98552059  0.66990541     0.15500
H3883       H  0.95077181  0.51342794  0.58970441     0.15200
N3884       N  0.90132490  0.51712953  0.58025761     0.74300
O3885       O  0.95412321  0.00351861  0.69453894    -0.39100
O3886       O  0.91877852  0.95732398  0.68902383    -0.39100
O3887       O  0.91233932  0.54349160  0.57081918    -0.39800
O3888       O  0.87945638  0.49571972  0.56808920    -0.39800
C3889       C  0.80988773  0.08082504  0.91838151    -0.12100
C3890       C  0.82741493  0.08705910  0.94221999     0.04900
C3891       C  0.84211315  0.07013691  0.94772450    -0.07400
C3892       C  0.84049752  0.04888713  0.92880319    -0.08200
C3893       C  0.82414593  0.04351067  0.90424541    -0.02700
C3894       C  0.80807648  0.05924892  0.89953671     0.04100
N3895       N  0.78971335  0.05373646  0.87590946     0.66600
H3896       H  0.79773288  0.09298483  0.91415531     0.15500
H3897       H  0.85227061  0.03646071  0.93345407     0.15200
N3898       N  0.85767326  0.07319050  0.97298403     0.74300
O3899       O  0.76225880  0.03376627  0.87758716    -0.39100
O3900       O  0.79744474  0.07428345  0.85818153    -0.39100
O3901       O  0.84376429  0.05539694  0.99257848    -0.39800
O3902       O  0.88629944  0.08815427  0.97336811    -0.39800
C3903       C  0.80886193  0.06887759  0.56876805    -0.12100
C3904       C  0.83687701  0.09431384  0.56225017     0.04900
C3905       C  0.86321920  0.09743632  0.57525685    -0.07400
C3906       C  0.86141321  0.07404206  0.59171659    -0.08200
C3907       C  0.83360543  0.04775293  0.59700623    -0.02700
C3908       C  0.80698522  0.04585063  0.58585275     0.04100
N3909       N  0.77795587  0.02006848  0.59007487     0.66600
H3910       H  0.78806316  0.06605158  0.55966065     0.15500
H3911       H  0.88234009  0.07636442  0.59985912     0.15200
N3912       N  0.89206093  0.12391408  0.57197057     0.74300
O3913       O  0.75693072  0.02354928  0.60037320    -0.39100
O3914       O  0.77129056  0.99632900  0.57703366    -0.39100
O3915       O  0.90056734  0.14432899  0.58979228    -0.39800
O3916       O  0.91147376  0.12358000  0.55575953    -0.39800
C3917       C  0.76626194  0.17882926  0.91766472    -0.12100
C3918       C  0.76164783  0.17684604  0.94607069     0.04900
C3919       C  0.73598519  0.17722609  0.95708437    -0.07400
C3920       C  0.71393243  0.17695116  0.93946679    -0.08200
C3921       C  0.71786797  0.17769234  0.91087386    -0.02700
C3922       C  0.74470095  0.17954416  0.90007237     0.04100
N3923       N  0.75079723  0.18291153  0.87135050     0.66600
H3924       H  0.78642043  0.17942472  0.90910628     0.15500
H3925       H  0.69368175  0.17609919  0.94808833     0.15200
N3926       N  0.73263087  0.17875343  0.98611845     0.74300
O3927       O  0.76856801  0.20882445  0.86221446    -0.39100
O3928       O  0.74627507  0.16034419  0.85736028    -0.39100
O3929       O  0.72159214  0.15364031  0.50232131    -0.39800
O3930       O  0.71898303  0.15488807  0.00009500    -0.39800
C3931       C  0.92578576  0.26971098  0.95196046    -0.12100
C3932       C  0.91304278  0.23940536  0.94448026     0.04900
C3933       C  0.92350696  0.23230732  0.92006346    -0.07400
C3934       C  0.94548784  0.25550665  0.90347114    -0.08200
C3935       C  0.95776903  0.28582109  0.91093006    -0.02700
C3936       C  0.94790370  0.29268268  0.93574898     0.04100
N3937       N  0.96065686  0.32289378  0.94532001     0.66600
H3938       H  0.91885012  0.27577341  0.97091366     0.15500
H3939       H  0.95240694  0.24978528  0.88433224     0.15200
N3940       N  0.91116842  0.20196433  0.91105227     0.74300
O3941       O  0.94609308  0.33694229  0.94204781    -0.39100
O3942       O  0.46629587  0.33844204  0.94945553    -0.39100
O3943       O  0.89031144  0.19200443  0.89338919    -0.39800
O3944       O  0.92597448  0.18828944  0.91509180    -0.39800
C3945       C  0.76602469  0.19316959  0.57325859    -0.12100
C3946       C  0.76104277  0.16603087  0.56166897     0.04900
C3947       C  0.73359796  0.13954807  0.56745935    -0.07400
C3948       C  0.71132306  0.14107346  0.58311674    -0.08200
C3949       C  0.71634694  0.16791292  0.59555911    -0.02700
C3950       C  0.74423277  0.19431812  0.59033489     0.04100
N3951       N  0.75094351  0.22262747  0.60162641     0.66600
H3952       H  0.78694228  0.21374397  0.56894754     0.15500
H3953       H  0.68998748  0.12058870  0.58576277     0.15200
N3954       N  0.72754405  0.11082790  0.55741903     0.74300
O3955       O  0.77145545  0.23407733  0.61948190    -0.39100
O3956       O  0.74372757  0.23945087  0.58831584    -0.39100
O3957       O  0.70789320  0.09826312  0.53896104    -0.39800
O3958       O  0.73548399  0.09514447  0.57167204    -0.39800
C3959       C  0.93822371  0.29235757  0.57585463    -0.12100
C3960       C  0.96321832  0.28875877  0.58334029     0.04900
C3961       C  0.96263188  0.26155416  0.57651196    -0.07400
C3962       C  0.93785097  0.23929681  0.56218280    -0.08200
C3963       C  0.91344784  0.24346758  0.55395915    -0.02700
C3964       C  0.91374948  0.27037080  0.56124634     0.04100
N3965       N  0.89042620  0.27676145  0.55262958     0.66600
H3966       H  0.93768285  0.31277448  0.58080687     0.15500
H3967       H  0.93819682  0.21886471  0.55682163     0.15200
N3968       N  0.98732845  0.25638557  0.58283630     0.74300
O3969       O  0.86942172  0.27257762  0.56923335    -0.39100
O3970       O  0.89478975  0.29294521  0.53160010    -0.39100
O3971       O  0.49536964  0.24253090  0.58883906    -0.39800
O3972       O  0.00814215  0.26314892  0.56523698    -0.39800
C3973       C  0.56080728  0.25894292  0.94073753    -0.12100
C3974       C  0.58820993  0.25850932  0.94430972     0.04900
C3975       C  0.59193864  0.23581072  0.93113152    -0.07400
C3976       C  0.56844536  0.21416661  0.91546393    -0.08200
C3977       C  0.54050782  0.21356480  0.91323591    -0.02700
C3978       C  0.53678963  0.23638868  0.92597301     0.04100
N3979       N  0.50797772  0.23527548  0.92686914     0.66600
H3980       H  0.55709035  0.27565424  0.95109034     0.15500
H3981       H  0.57200484  0.19716921  0.90547391     0.15200
N3982       N  0.61926823  0.23406950  0.93308642     0.74300
O3983       O  0.48963839  0.22038992  0.94587428    -0.39100
O3984       O  0.99860416  0.24731927  0.91732175    -0.39100
O3985       O  0.62196149  0.21927721  0.95267356    -0.39800
O3986       O  0.63432484  0.23744573  0.91136104    -0.39800
C3987       C  0.58548295  0.23136168  0.56122141    -0.12100
C3988       C  0.59055854  0.26094267  0.56163369     0.04900
C3989       C  0.57618099  0.26896180  0.58237532    -0.07400
C3990       C  0.55649459  0.24713233  0.60147140    -0.08200
C3991       C  0.55102214  0.21724746  0.60052767    -0.02700
C3992       C  0.56642289  0.20983724  0.58015483     0.04100
N3993       N  0.56264424  0.18028964  0.57761448     0.66600
H3994       H  0.59616499  0.22437252  0.54568913     0.15500
H3995       H  0.54589452  0.25373134  0.61738402     0.15200
N3996       N  0.58267371  0.29938694  0.58527444     0.74300
O3997       O  0.54382467  0.16244376  0.56049024    -0.39100
O3998       O  0.58295414  0.17503509  0.58683294    -0.39100
O3999       O  0.56607657  0.30816478  0.57364114    -0.39800
O4000       O  0.60768383  0.31848338  0.59539805    -0.39800
C4001       C  0.69747193  0.43375868  0.93682078    -0.12100
C4002       C  0.66961737  0.40776616  0.94237807     0.04900
C4003       C  0.64334576  0.40449238  0.92919074    -0.07400
C4004       C  0.64508026  0.42728303  0.91200648    -0.08200
C4005       C  0.67258855  0.45407635  0.90753167    -0.02700
C4006       C  0.69913657  0.45678808  0.91976512     0.04100
N4007       N  0.72786193  0.48303499  0.91600701     0.66600
H4008       H  0.71805503  0.43689826  0.94662195     0.15500
H4009       H  0.62434790  0.42388983  0.90233542     0.15200
N4010       N  0.61463948  0.37799426  0.93264746     0.74300
O4011       O  0.73707516  0.50339010  0.93390270    -0.39100
O4012       O  0.74680765  0.48184849  0.89984625    -0.39100
O4013       O  0.59401214  0.37910000  0.94650213    -0.39800
O4014       O  0.60793504  0.35580663  0.91726757    -0.39800
C4015       C  0.77002969  0.35000058  0.94700346    -0.12100
C4016       C  0.73978080  0.32795458  0.94323107     0.04900
C4017       C  0.73302064  0.30655067  0.92222508    -0.07400
C4018       C  0.75642171  0.30782750  0.90557183    -0.08200
C4019       C  0.78674500  0.32998857  0.90960509    -0.02700
C4020       C  0.79327777  0.35099015  0.93089444     0.04100
N4021       N  0.82359147  0.37268194  0.93774207     0.66600
H4022       H  0.77613936  0.36622027  0.96339338     0.15500
H4023       H  0.75072104  0.29156924  0.88928849     0.15200
N4024       N  0.70265927  0.28379624  0.91696913     0.74300
O4025       O  0.83301092  0.39975236  0.93120747    -0.39100
O4026       O  0.83669493  0.36663884  0.95676785    -0.39100
O4027       O  0.68814971  0.28808305  0.89804507    -0.39800
O4028       O  0.69427334  0.25733809  0.92504419    -0.39800
C4029       C  0.69291160  0.41776110  0.58025638    -0.12100
C4030       C  0.67465064  0.41148506  0.55684275     0.04900
C4031       C  0.65924013  0.42793121  0.55245399    -0.07400
C4032       C  0.66062863  0.44849261  0.57211787    -0.08200
C4033       C  0.67760458  0.45378602  0.59632387    -0.02700
C4034       C  0.69445725  0.43863878  0.59991583     0.04100
N4035       N  0.71262975  0.44344239  0.62362397     0.66600
H4036       H  0.70537748  0.40577181  0.58375309     0.15500
H4037       H  0.64822183  0.46048735  0.56830756     0.15200
N4038       N  0.64307795  0.42499757  0.52757456     0.74300
O4039       O  0.70116583  0.42661050  0.64432109    -0.39100
O4040       O  0.74109476  0.45796490  0.62092790    -0.39100
O4041       O  0.61442989  0.41194436  0.52802866    -0.39800
O4042       O  0.65722918  0.44076187  0.50694351    -0.39800
C4043       C  0.76946034  0.33868071  0.54385784    -0.12100
C4044       C  0.73931913  0.32337032  0.55310050     0.04900
C4045       C  0.73251841  0.30792674  0.57845429    -0.07400
C4046       C  0.75626704  0.30961385  0.59465343    -0.08200
C4047       C  0.78670850  0.32614728  0.58576671    -0.02700
C4048       C  0.79302390  0.33986376  0.55957387     0.04100
N4049       N  0.82289085  0.35399644  0.54788707     0.66600
H4050       H  0.77476171  0.34940377  0.52379992     0.15500
H4051       H  0.75094447  0.29885958  0.61468378     0.15200
N4052       N  0.70207693  0.29197497  0.58875260     0.74300
O4053       O  0.83467003  0.33795962  0.54152697    -0.39100
O4054       O  0.83303621  0.37953364  0.53678412    -0.39100
O4055       O  0.68796354  0.26363880  0.58812359    -0.39800
O4056       O  0.69225800  0.30543509  0.60389443    -0.39800
Fe4057     Fe  0.70639401  0.86656032  0.99786727     1.65800
Fe4058     Fe  0.62900324  0.83621936  0.50479897     1.73200
Fe4059     Fe  0.66428292  0.79327964  0.50204306     1.54400
O4060       O  0.69644128  0.80363174  0.47144824    -0.81500
O4061       O  0.61387002  0.80703701  0.03460819    -0.79800
O4062       O  0.71997915  0.85319519  0.46689614    -0.84000
O4063       O  0.72580069  0.84900767  0.02397024    -0.78900
O4064       O  0.63201997  0.77747777  0.47199729    -0.80700
O4065       O  0.64838988  0.87169885  0.02423100    -0.83400
C4066       C  0.71805696  0.82447509  0.03659746     0.97400
C4067       C  0.71555847  0.82755807  0.45946983     1.04800
O4068       O  0.66655501  0.83320942  0.50214483    -1.12400
O4069       O  0.64135183  0.86670914  0.47241066    -0.74800
O4070       O  0.69183681  0.89012228  0.47076392    -0.78300
O4071       O  0.69328237  0.80068118  0.03205093    -0.79000
C4072       C  0.66654838  0.88689817  0.46260338     0.96300
O4073       O  0.69691574  0.88535309  0.03147257    -0.77000
O4074       O  0.60581346  0.80184910  0.47673026    -0.82200
C4075       C  0.61261382  0.78194256  0.03948480     0.98900
C4076       C  0.61016357  0.78176733  0.46546151     1.04800
O4077       O  0.62837836  0.77289959  0.02622297    -0.77800
C4078       C  0.67362322  0.88816429  0.03595493     1.03100
Fe4079     Fe  0.87115190  0.66495369  0.49535250     1.65800
Fe4080     Fe  0.79164003  0.62943986  0.00263126     1.73200
Fe4081     Fe  0.83213054  0.70561466  0.00228006     1.54400
O4082       O  0.86226698  0.72009545  0.03428403    -0.81500
O4083       O  0.77214549  0.64701973  0.47442005    -0.79800
O4084       O  0.89327064  0.70271222  0.02230647    -0.84000
O4085       O  0.88706431  0.69247007  0.46065949    -0.78900
O4086       O  0.79715870  0.69162898  0.03068109    -0.80700
O4087       O  0.80355824  0.61283654  0.46363925    -0.83400
C4088       C  0.88690656  0.71692529  0.45581843     0.97400
C4089       C  0.88743885  0.72037278  0.03630107     1.04800
O4090       O  0.83069675  0.66671270  0.00061849    -1.12400
O4091       O  0.80836413  0.60749457  0.02661450    -0.74800
O4092       O  0.85786474  0.63846067  0.03199164    -0.78300
O4093       O  0.86954862  0.72436536  0.46853719    -0.79000
C4094       C  0.83349372  0.61469106  0.03818241     0.96300
O4095       O  0.85251350  0.62761959  0.47028907    -0.77000
O4096       O  0.77980619  0.64291218  0.03848254    -0.82200
C4097       C  0.77893054  0.67175345  0.46265093     0.98900
C4098       C  0.78112977  0.66774214  0.04439084     1.04800
O4099       O  0.80430950  0.69523477  0.46574608    -0.77800
C4100       C  0.82723778  0.61078987  0.45880698     1.03100
C4101       C  0.97416979  0.00199272  0.13872921     0.02400
C4102       C  0.00445204  0.52787127  0.13692497     0.02400
C4103       C  0.52955565  0.52681519  0.14380127     0.02400
C4104       C  0.52848185  0.99310977  0.12381030     0.02400
C4105       C  0.99987674  0.97175390  0.13391615     0.02400
C4106       C  0.97275714  0.97334763  0.13839495     0.02400
C4107       C  0.80994902  0.98231554  0.14555141     0.80400
N4108       N  0.83753363  0.98399959  0.14637188    -0.77900
C4109       C  0.86122546  0.00518916  0.13192990     0.82800
N4110       N  0.86108589  0.52693368  0.11474534    -0.77900
C4111       C  0.83353991  0.52534630  0.11223476     0.82900
N4112       N  0.80590321  0.00240066  0.12998530    -0.79600
C4113       C  0.68277225  0.50742690  0.15232186     0.80400
N4114       N  0.65470892  0.50411960  0.15628915    -0.77900
C4115       C  0.64161939  0.99018899  0.13413086     0.82800
N4116       N  0.64652567  0.97244737  0.11663248    -0.77900
C4117       C  0.67365024  0.97303270  0.11529614     0.82900
N4118       N  0.69684422  0.99260631  0.13163640    -0.79600
C4119       C  0.69678357  0.66471919  0.12582007     0.80400
N4120       N  0.69948517  0.68822185  0.14103309    -0.77900
C4121       C  0.67646892  0.68448711  0.15809184     0.82800
N4122       N  0.65070116  0.65736322  0.15940785    -0.77900
C4123       C  0.64780845  0.63396786  0.14409560     0.82900
N4124       N  0.67092442  0.63777266  0.12728821    -0.79600
C4125       C  0.97679845  0.66790167  0.14242510     0.80400
N4126       N  0.99642869  0.69067448  0.12571097    -0.77900
C4127       C  0.53083887  0.69562464  0.11904128     0.82800
N4128       N  0.53502951  0.67153458  0.12282945    -0.77900
C4129       C  0.00252559  0.64078932  0.13262752     0.82900
N4130       N  0.98010836  0.64318616  0.14586524    -0.79600
C4131       C  0.81069262  0.83080851  0.10963249     0.80400
N4132       N  0.80688850  0.80747240  0.12584498    -0.77900
C4133       C  0.82842578  0.81109243  0.14441302     0.82800
N4134       N  0.85346269  0.83850721  0.14710687    -0.77900
C4135       C  0.85757083  0.86217814  0.13125184     0.82900
N4136       N  0.83603862  0.85805709  0.11242753    -0.79600
C4137       C  0.53143758  0.82760835  0.12541448     0.80400
N4138       N  0.53076180  0.85380079  0.12667628    -0.77900
C4139       C  0.00461945  0.86085744  0.12125780     0.82800
N4140       N  0.98328251  0.83800265  0.10622857    -0.77900
C4141       C  0.98443086  0.81219496  0.10220219     0.82900
N4142       N  0.00755277  0.80941174  0.11359341    -0.79600
Fe4143     Fe  0.83262395  0.62679749  0.25036078     1.65800
Fe4144     Fe  0.78803022  0.66000310  0.24826689     1.73200
Fe4145     Fe  0.86454873  0.70290966  0.25231046     1.54400
O4146       O  0.88734893  0.68939567  0.27890206    -0.81500
O4147       O  0.79976176  0.68991227  0.21546475    -0.79800
O4148       O  0.85968106  0.64015155  0.28510510    -0.84000
O4149       O  0.87015956  0.64640325  0.22473062    -0.78900
O4150       O  0.84752300  0.71411862  0.28585467    -0.80700
O4151       O  0.77166193  0.62435037  0.22093199    -0.83400
C4152       C  0.88673933  0.67165263  0.21304565     0.97400
C4153       C  0.88195744  0.66543451  0.29139877     1.04800
O4154       O  0.82832376  0.66313745  0.25000344    -1.12400
O4155       O  0.77250398  0.63011836  0.28090595    -0.74800
O4156       O  0.79570398  0.60279040  0.27578736    -0.78300
O4157       O  0.88502405  0.69504011  0.21887319    -0.79000
C4158       C  0.77569141  0.60751749  0.28695658     0.96300
O4159       O  0.80529247  0.60832383  0.21622851    -0.77000
O4160       O  0.79869573  0.69529559  0.27564928    -0.82200
C4161       C  0.82293457  0.71589605  0.21355993     0.98900
C4162       C  0.82206565  0.71305698  0.28934188     1.04800
O4163       O  0.84713363  0.72317096  0.22682887    -0.77800
C4164       C  0.78019678  0.60697978  0.21007918     1.03100
Fe4165     Fe  0.62899499  0.79380527  0.25041827     1.65800
Fe4166     Fe  0.70560970  0.83681037  0.25349311     1.73200
Fe4167     Fe  0.66109855  0.86939474  0.24771241     1.54400
O4168       O  0.63592318  0.85374471  0.21223945    -0.81500
O4169       O  0.72216945  0.87506454  0.27739159    -0.79800
O4170       O  0.60676751  0.80511023  0.22124791    -0.84000
O4171       O  0.60873986  0.80466058  0.28168384    -0.78900
O4172       O  0.69951153  0.89199702  0.22386853    -0.80700
O4173       O  0.69413293  0.81049519  0.28887649    -0.83400
C4174       C  0.60539249  0.82760396  0.28389820     0.97400
C4175       C  0.61339467  0.82820493  0.20677041     1.04800
O4176       O  0.66526820  0.83336438  0.25072549    -1.12400
O4177       O  0.69442566  0.79928605  0.22940066    -0.74800
O4178       O  0.64550769  0.77899454  0.21910850    -0.78300
O4179       O  0.62193705  0.85189254  0.27100176    -0.79000
C4180       C  0.67112972  0.78040872  0.21629360     0.96300
O4181       O  0.64635345  0.77709165  0.27927070    -0.77000
O4182       O  0.72119748  0.86347117  0.21854251    -0.82200
C4183       C  0.71273513  0.89192636  0.28776152     0.98900
C4184       C  0.71932879  0.88684353  0.21285034     1.04800
O4185       O  0.68651641  0.88851116  0.28278611    -0.77800
C4186       C  0.67018168  0.78567546  0.29350916     1.03100
C4187       C  0.52413581  0.49826691  0.36195701     0.02400
C4188       C  0.49618133  0.97444168  0.36308130     0.02400
C4189       C  0.96856945  0.97355132  0.36146836     0.02400
C4190       C  0.97434765  0.50347554  0.36378562     0.02400
C4191       C  0.49791841  0.52793200  0.36433221     0.02400
C4192       C  0.52530011  0.52661746  0.36266809     0.02400
C4193       C  0.68973236  0.52324433  0.36482005     0.80400
N4194       N  0.66232069  0.52185769  0.36378137    -0.77900
C4195       C  0.63815621  0.49994462  0.37720859     0.82800
N4196       N  0.64050747  0.98004649  0.39110878    -0.77900
C4197       C  0.66740737  0.97993377  0.39240207     0.82900
N4198       N  0.69289837  0.50186246  0.37908599    -0.79600
C4199       C  0.80695538  0.98938404  0.34889074     0.80400
N4200       N  0.80625638  0.50340016  0.36759982    -0.77900
C4201       C  0.82877766  0.52366400  0.38417822     0.82800
N4202       N  0.85630939  0.52490289  0.38432810    -0.77900
C4203       C  0.86173027  0.50652572  0.36835519     0.82900
N4204       N  0.83364717  0.98889313  0.34849224    -0.79600
C4205       C  0.97235121  0.66876577  0.36594250     0.80400
N4206       N  0.97349680  0.64273872  0.36523397    -0.77900
C4207       C  0.99495010  0.63969200  0.37932871     0.82800
N4208       N  0.52059906  0.66502006  0.39426509    -0.77900
C4209       C  0.51900834  0.69091311  0.39624106     0.82900
N4210       N  0.99300086  0.69219849  0.38115238    -0.79600
C4211       C  0.68589499  0.67023259  0.39345303     0.80400
N4212       N  0.68758040  0.69429530  0.37965867    -0.77900
C4213       C  0.66387844  0.69102650  0.36391793     0.82800
N4214       N  0.63909485  0.66348222  0.36179829    -0.77900
C4215       C  0.63706285  0.63943009  0.37541520     0.82900
N4216       N  0.66049726  0.64293759  0.39141348    -0.79600
C4217       C  0.51636417  0.82956943  0.35691875     0.80400
N4218       N  0.51658247  0.85622097  0.35556647    -0.77900
C4219       C  0.49710043  0.86140017  0.37051515     0.82800
N4220       N  0.97979019  0.83825825  0.38783518    -0.77900
C4221       C  0.97963915  0.81153071  0.38885314     0.82900
N4222       N  0.49613455  0.80749903  0.37388347    -0.79600
C4223       C  0.80363423  0.83218445  0.38105858     0.80400
N4224       N  0.80218138  0.80771228  0.36854736    -0.77900
C4225       C  0.82702543  0.80947738  0.35578431     0.82800
N4226       N  0.85340561  0.83602814  0.35554008    -0.77900
C4227       C  0.85525092  0.86063953  0.36809263     0.82900
N4228       N  0.83027315  0.85853879  0.38081544    -0.79600
C4229       C  0.99484019  0.57198912  0.34779403    -0.12100
C4230       C  0.49886688  0.55729615  0.36939143     0.04900
C4231       C  0.50695758  0.57231103  0.39509053    -0.07400
C4232       C  0.50865921  0.60069467  0.39749263    -0.08200
C4233       C  0.99785264  0.61234372  0.37610131    -0.02700
C4234       C  0.99306431  0.59828833  0.35039283     0.04100
N4235       N  0.98870798  0.61177182  0.32626339     0.66600
H4236       H  0.99167801  0.56190855  0.32777302     0.15500
H4237       H  0.51398346  0.61195440  0.41715659     0.15200
N4238       N  0.51301282  0.55918392  0.41887605     0.74300
O4239       O  0.01026141  0.63595871  0.31691410    -0.39100
O4240       O  0.96297573  0.60033742  0.31503940    -0.39100
O4241       O  0.52977187  0.57580754  0.43781353    -0.39800
O4242       O  0.50045369  0.53104676  0.42193685    -0.39800
C4243       C  0.57099089  0.56133221  0.38979709    -0.12100
C4244       C  0.55516787  0.55486555  0.36478276     0.04900
C4245       C  0.56680266  0.57647838  0.34334042    -0.07400
C4246       C  0.59392318  0.60331581  0.34720884    -0.08200
C4247       C  0.60948342  0.60985201  0.37222786    -0.02700
C4248       C  0.59766609  0.58868171  0.39379615     0.04100
N4249       N  0.61102792  0.59567413  0.42048007     0.66600
H4250       H  0.56170991  0.54567133  0.40683006     0.15500
H4251       H  0.60273733  0.61938763  0.33043648     0.15200
N4252       N  0.55095448  0.57258089  0.31800769     0.74300
O4253       O  0.60873030  0.61488397  0.43508553    -0.39100
O4254       O  0.62786510  0.58520316  0.42818738    -0.39100
O4255       O  0.54449149  0.59250513  0.31057792    -0.39800
O4256       O  0.55197393  0.55545854  0.29995161    -0.39800
C4257       C  0.90269047  0.89596549  0.34346421    -0.12100
C4258       C  0.88394427  0.88970354  0.36668807     0.04900
C4259       C  0.89290405  0.91147784  0.38759326    -0.07400
C4260       C  0.92016857  0.93852283  0.38495841    -0.08200
C4261       C  0.93893697  0.94488932  0.36175165    -0.02700
C4262       C  0.92983178  0.92320155  0.34062464     0.04100
N4263       N  0.94747178  0.92802677  0.31613545     0.66600
H4264       H  0.89597161  0.87973823  0.32700020     0.15500
H4265       H  0.92736743  0.95425289  0.40183166     0.15200
N4266       N  0.87566106  0.90600122  0.41237667     0.74300
O4267       O  0.95586102  0.90917078  0.31000822    -0.39100
O4268       O  0.94546715  0.94372758  0.29707677    -0.39100
O4269       O  0.87908625  0.89113451  0.43145511    -0.39800
O4270       O  0.86388867  0.92224784  0.41785805    -0.39800
C4271       C  0.92935007  0.00709189  0.38718881    -0.12100
C4272       C  0.94577121  0.50516917  0.36448878     0.04900
C4273       C  0.92907444  0.50262911  0.34053944    -0.07400
C4274       C  0.90213242  0.50380378  0.34253892    -0.08200
C4275       C  0.89151986  0.50797547  0.36782992    -0.02700
C4276       C  0.90237055  0.00841896  0.38915513     0.04100
N4277       N  0.89249737  0.01235006  0.41562884     0.66600
H4278       H  0.94195403  0.00911416  0.40567936     0.15500
H4279       H  0.88942968  0.50157123  0.32399776     0.15200
N4280       N  0.93863616  0.49864411  0.31395956     0.74300
O4281       O  0.87587319  0.98955880  0.43015253    -0.39100
O4282       O  0.90583438  0.03787686  0.42674115    -0.39100
O4283       O  0.95639622  0.52163490  0.30020749    -0.39800
O4284       O  0.92127929  0.47506413  0.30105796    -0.39800
C4285       C  0.59987321  0.50115099  0.34720827    -0.12100
C4286       C  0.60827034  0.49752241  0.37361905     0.04900
C4287       C  0.58782402  0.99287434  0.39555758    -0.07400
C4288       C  0.56059848  0.99346525  0.39184270    -0.08200
C4289       C  0.55272732  0.49663808  0.36484430    -0.02700
C4290       C  0.57256685  0.50101111  0.34247213     0.04100
N4291       N  0.56683008  0.50710808  0.31508014     0.66600
H4292       H  0.61497339  0.50459883  0.32998913     0.15500
H4293       H  0.54547384  0.98865041  0.40921732     0.15200
N4294       N  0.59489000  0.98598205  0.42210024     0.74300
O4295       O  0.54982104  0.48542291  0.29992495    -0.39100
O4296       O  0.58688835  0.53076439  0.30357171    -0.39100
O4297       O  0.61552169  0.00641917  0.43621946    -0.39800
O4298       O  0.58316356  0.95898408  0.42996619    -0.39800
C4299       C  0.50941709  0.93707407  0.34444003    -0.12100
C4300       C  0.49670601  0.94560192  0.36583350     0.04900
C4301       C  0.98690084  0.92574035  0.39177968    -0.07400
C4302       C  0.98781065  0.89869886  0.39230166    -0.08200
C4303       C  0.49766122  0.89067667  0.36840319    -0.02700
C4304       C  0.51039389  0.91021918  0.34554482     0.04100
N4305       N  0.52389722  0.90318641  0.32289952     0.66600
H4306       H  0.51801885  0.95099014  0.32644328     0.15500
H4307       H  0.98050851  0.88500615  0.41097520     0.15200
N4308       N  0.97777740  0.93491240  0.41611416     0.74300
O4309       O  0.50820816  0.89128334  0.30178959    -0.39100
O4310       O  0.55248700  0.91582780  0.32113103    -0.39100
O4311       O  0.99800523  0.95208827  0.43260186    -0.39800
O4312       O  0.95111368  0.91877382  0.42515118    -0.39800
C4313       C  0.64120813  0.73819469  0.31942325    -0.12100
C4314       C  0.66910115  0.76445754  0.31515734     0.04900
C4315       C  0.69476719  0.76772342  0.32965950    -0.07400
C4316       C  0.69245313  0.74401436  0.34617591    -0.08200
C4317       C  0.66489153  0.71684577  0.34864377    -0.02700
C4318       C  0.63881541  0.71459444  0.33553971     0.04100
N4319       N  0.60961036  0.68828299  0.33748586     0.66600
H4320       H  0.62080031  0.73516822  0.30935008     0.15500
H4321       H  0.71261594  0.74669004  0.35645887     0.15200
N4322       N  0.72337378  0.79461710  0.32773663     0.74300
O4323       O  0.59070734  0.68740325  0.35501750    -0.39100
O4324       O  0.60020117  0.67026806  0.31757088    -0.39100
O4325       O  0.73050583  0.81438445  0.34601036    -0.39800
O4326       O  0.74374024  0.79545810  0.31203509    -0.39800
C4327       C  0.57283409  0.80828775  0.32571747    -0.12100
C4328       C  0.58107488  0.82604322  0.30179042     0.04900
C4329       C  0.56592516  0.84225622  0.29532331    -0.07400
C4330       C  0.54363589  0.84099543  0.31293874    -0.08200
C4331       C  0.53683196  0.82519239  0.33795720    -0.02700
C4332       C  0.55134766  0.80819162  0.34419782     0.04100
N4333       N  0.54650231  0.79257402  0.36975142     0.66600
H4334       H  0.58439722  0.79578341  0.33089309     0.15500
H4335       H  0.53218557  0.85341916  0.30721379     0.15200
N4336       N  0.57311848  0.86059117  0.27117436     0.74300
O4337       O  0.53947440  0.76521099  0.36954394    -0.39100
O4338       O  0.55773617  0.80751483  0.39128458    -0.39100
O4339       O  0.55642404  0.85052854  0.25031123    -0.39800
O4340       O  0.59085915  0.88849994  0.27306948    -0.39800
C4341       C  0.75164725  0.95397475  0.34124612    -0.12100
C4342       C  0.78175431  0.96786040  0.33136699     0.04900
C4343       C  0.78785152  0.95799087  0.30626091    -0.07400
C4344       C  0.76479162  0.93333351  0.29291448    -0.08200
C4345       C  0.73508077  0.91827956  0.30344949    -0.02700
C4346       C  0.72824602  0.92943468  0.32740728     0.04100
N4347       N  0.69830948  0.91521811  0.33887965     0.66600
H4348       H  0.74645589  0.96120810  0.36041335     0.15500
H4349       H  0.77020969  0.92606516  0.27381985     0.15200
N4350       N  0.81722921  0.97309612  0.29358879     0.74300
O4351       O  0.69173210  0.89604016  0.35782784    -0.39100
O4352       O  0.68185970  0.92727036  0.33549401    -0.39100
O4353       O  0.83350643  0.96058976  0.29341659    -0.39800
O4354       O  0.82314709  0.99421800  0.27684355    -0.39800
C4355       C  0.91906594  0.64644974  0.35074801    -0.12100
C4356       C  0.94873787  0.67074597  0.34962886     0.04900
C4357       C  0.95542189  0.69443192  0.33103755    -0.07400
C4358       C  0.93301563  0.69254806  0.31299042    -0.08200
C4359       C  0.90363356  0.66748015  0.31307525    -0.02700
C4360       C  0.89650022  0.64481461  0.33305354     0.04100
N4361       N  0.86624385  0.62079058  0.33673448     0.66600
H4362       H  0.91335878  0.62843968  0.36545105     0.15500
H4363       H  0.93916165  0.71045496  0.29809731     0.15200
N4364       N  0.98517545  0.71975624  0.32891435     0.74300
O4365       O  0.85919728  0.59516443  0.32740747    -0.39100
O4366       O  0.84995648  0.62309610  0.35526923    -0.39100
O4367       O  0.00371373  0.71909039  0.31182262    -0.39800
O4368       O  0.98936568  0.74483673  0.33737338    -0.39800
C4369       C  0.74060315  0.59545545  0.32669544    -0.12100
C4370       C  0.75518811  0.58586185  0.30787167     0.04900
C4371       C  0.74918655  0.55566741  0.30913273    -0.07400
C4372       C  0.72877817  0.53597582  0.32874800    -0.08200
C4373       C  0.71423857  0.54567407  0.34738009    -0.02700
C4374       C  0.72015676  0.57570455  0.34617641     0.04100
N4375       N  0.70532338  0.58647626  0.36436502     0.66600
H4376       H  0.74486181  0.61842703  0.32622354     0.15500
H4377       H  0.72353387  0.51268294  0.32883398     0.15200
N4378       N  0.76232732  0.54407288  0.28993903     0.74300
O4379       O  0.71849653  0.59964086  0.38615416    -0.39100
O4380       O  0.68340165  0.58944159  0.35562497    -0.39100
O4381       O  0.78355823  0.53944421  0.29764190    -0.39800
O4382       O  0.74799368  0.53164785  0.26834725    -0.39800
C4383       C  0.79842935  0.76465042  0.32623068    -0.12100
C4384       C  0.82487872  0.78312311  0.34103247     0.04900
C4385       C  0.84902962  0.77661573  0.34056938    -0.07400
C4386       C  0.84662961  0.75257142  0.32497875    -0.08200
C4387       C  0.82074990  0.73479056  0.30903569    -0.02700
C4388       C  0.79611204  0.74076080  0.31026775     0.04100
N4389       N  0.76922246  0.72404068  0.29441344     0.66600
H4390       H  0.77969756  0.76935782  0.32631618     0.15500
H4391       H  0.86577494  0.74848638  0.32478797     0.15200
N4392       N  0.87622659  0.79408325  0.35581349     0.74300
O4393       O  0.74588583  0.70313189  0.30572798    -0.39100
O4394       O  0.76654269  0.73460317  0.27177212    -0.39100
O4395       O  0.87954960  0.78428915  0.37864530    -0.39800
O4396       O  0.89924725  0.81452775  0.34367171    -0.39800
C4397       C  0.60353671  0.84982592  0.16472227    -0.12100
C4398       C  0.59382319  0.82545154  0.18300013     0.04900
C4399       C  0.56510037  0.79966864  0.17867849    -0.07400
C4400       C  0.54624851  0.79971048  0.15771295    -0.08200
C4401       C  0.55500149  0.82516120  0.14120226    -0.02700
C4402       C  0.58448955  0.84998994  0.14407148     0.04100
N4403       N  0.59534989  0.87583021  0.12653901     0.66600
H4404       H  0.62572797  0.86942900  0.16693250     0.15500
H4405       H  0.52366647  0.78058293  0.15584734     0.15200
N4406       N  0.55351098  0.77410548  0.19654644     0.74300
O4407       O  0.59552997  0.89914892  0.13535044    -0.39100
O4408       O  0.61195407  0.87810349  0.10621116    -0.39100
O4409       O  0.53680699  0.77245644  0.21659599    -0.39800
O4410       O  0.55374639  0.75068726  0.18863739    -0.39800
C4411       C  0.80847800  0.73264057  0.17023143    -0.12100
C4412       C  0.82209488  0.73944407  0.19623836     0.04900
C4413       C  0.83583608  0.76946801  0.20550616    -0.07400
C4414       C  0.83745776  0.79214940  0.18830218    -0.08200
C4415       C  0.82504831  0.78574152  0.16188932    -0.02700
C4416       C  0.81001181  0.75553527  0.15296957     0.04100
N4417       N  0.79610923  0.74771611  0.12656794     0.66600
H4418       H  0.79742014  0.70967398  0.16296648     0.15500
H4419       H  0.84816368  0.81497757  0.19592213     0.15200
N4420       N  0.84708707  0.77717435  0.23289086     0.74300
O4421       O  0.81224132  0.75611013  0.10508909    -0.39100
O4422       O  0.76770972  0.73635809  0.12468775    -0.39100
O4423       O  0.87537396  0.79065667  0.23690376    -0.39800
O4424       O  0.82960188  0.77697357  0.25159848    -0.39800
C4425       C  0.90269088  0.64585573  0.17947639    -0.12100
C4426       C  0.90873268  0.67289190  0.19206323     0.04900
C4427       C  0.93624164  0.69925397  0.18560913    -0.07400
C4428       C  0.95764772  0.69754627  0.16822657    -0.08200
C4429       C  0.95222938  0.66993353  0.15727180    -0.02700
C4430       C  0.92394112  0.64413150  0.16233771     0.04100
N4431       N  0.91584583  0.61606815  0.14956902     0.66600
H4432       H  0.88131223  0.62555375  0.18322106     0.15500
H4433       H  0.97919501  0.71762810  0.16441969     0.15200
N4434       N  0.94375413  0.72746732  0.19778147     0.74300
O4435       O  0.91367453  0.59456644  0.16407512    -0.39100
O4436       O  0.90255412  0.61042330  0.12673013    -0.39100
O4437       O  0.95909738  0.73520191  0.21958649    -0.39800
O4438       O  0.94143196  0.74705176  0.18369450    -0.39800
C4439       C  0.70020554  0.75563513  0.19960416    -0.12100
C4440       C  0.67360550  0.75803648  0.19851055     0.04900
C4441       C  0.64908017  0.73710629  0.18242958    -0.07400
C4442       C  0.65083248  0.71349204  0.16974358    -0.08200
C4443       C  0.67688428  0.71044873  0.17181771    -0.02700
C4444       C  0.70210287  0.73226023  0.18636843     0.04100
N4445       N  0.72949919  0.73073937  0.18876510     0.66600
H4446       H  0.71947165  0.77142306  0.21153071     0.15500
H4447       H  0.63163080  0.69751145  0.15783348     0.15200
N4448       N  0.62231287  0.73950996  0.17828367     0.74300
O4449       O  0.75282022  0.75021002  0.17629668    -0.39100
O4450       O  0.73278829  0.71733659  0.20920323    -0.39100
O4451       O  0.62004926  0.75193181  0.15662880    -0.39800
O4452       O  0.59865240  0.72281282  0.19199423    -0.39800
C4453       C  0.73502988  0.53228411  0.17247717    -0.12100
C4454       C  0.70960360  0.53431925  0.16379785     0.04900
C4455       C  0.70957949  0.56182135  0.16763592    -0.07400
C4456       C  0.73372824  0.58563858  0.18114188    -0.08200
C4457       C  0.75862800  0.58325161  0.19100242    -0.02700
C4458       C  0.75968207  0.55650611  0.18538265     0.04100
N4459       N  0.78503928  0.55299792  0.19324360     0.66600
H4460       H  0.73554743  0.51150992  0.16989242     0.15500
H4461       H  0.73249517  0.60600208  0.18449548     0.15200
N4462       N  0.68508021  0.56604106  0.15822947     0.74300
O4463       O  0.78346334  0.53876488  0.21498658    -0.39100
O4464       O  0.80509555  0.55724062  0.17551385    -0.39100
O4465       O  0.66690612  0.56717849  0.17546029    -0.39800
O4466       O  0.68542506  0.57475156  0.13387594    -0.39800
C4467       C  0.74335817  0.93864528  0.19372501    -0.12100
C4468       C  0.74148895  0.91013818  0.19381966     0.04900
C4469       C  0.76178361  0.90564804  0.17696493    -0.07400
C4470       C  0.78302755  0.92929372  0.16068360    -0.08200
C4471       C  0.78502416  0.95773294  0.16104934    -0.02700
C4472       C  0.76503875  0.96234810  0.17787560     0.04100
N4473       N  0.76700230  0.99113214  0.17984915     0.66600
H4474       H  0.72850645  0.94306831  0.20670260     0.15500
H4475       H  0.79853721  0.92551216  0.14799355     0.15200
N4476       N  0.76185583  0.87767670  0.17649994     0.74300
O4477       O  0.74784568  0.99567196  0.16725419    -0.39100
O4478       O  0.73393665  0.47251079  0.13574247    -0.39100
O4479       O  0.75024600  0.86034368  0.15633977    -0.39800
O4480       O  0.77997358  0.87416931  0.19189165    -0.39800
C4481       C  0.57524004  0.56671521  0.12005079    -0.12100
C4482       C  0.56095004  0.55323485  0.14491650     0.04900
C4483       C  0.57635055  0.56575571  0.16979991    -0.07400
C4484       C  0.60478756  0.59200104  0.16911507    -0.08200
C4485       C  0.61871539  0.60550100  0.14408531    -0.02700
C4486       C  0.60385901  0.59233316  0.11936274     0.04100
N4487       N  0.61666547  0.60565612  0.09335163     0.66600
H4488       H  0.56401471  0.55751611  0.10093112     0.15500
H4489       H  0.61616775  0.60175744  0.18824851     0.15200
N4490       N  0.56398945  0.55218882  0.19587874     0.74300
O4491       O  0.63062541  0.59534089  0.07943078    -0.39100
O4492       O  0.60812273  0.62244101  0.08183063    -0.39100
O4493       O  0.57387109  0.53631130  0.20698771    -0.39800
O4494       O  0.55270020  0.56416061  0.21116887    -0.39800
C4495       C  0.51417234  0.57782118  0.16513978    -0.12100
C4496       C  0.00636843  0.55810104  0.13603750     0.04900
C4497       C  0.01702682  0.57716788  0.11271453    -0.07400
C4498       C  0.01657095  0.60440402  0.11270179    -0.08200
C4499       C  0.00503973  0.61303424  0.13512392    -0.02700
C4500       C  0.51868352  0.60705055  0.16573613     0.04100
N4501       N  0.52404215  0.62212671  0.19148891     0.66600
H4502       H  0.51378989  0.56682437  0.18413297     0.15500
H4503       H  0.02399914  0.61820258  0.09437820     0.15200
N4504       N  0.02688941  0.56880980  0.08827848     0.74300
O4505       O  0.50179656  0.61701233  0.20683432    -0.39100
O4506       O  0.55035540  0.63406511  0.20159128    -0.39100
O4507       O  0.05266911  0.58671136  0.07831102    -0.39800
O4508       O  0.00735841  0.54903006  0.07287902    -0.39800
C4509       C  0.56061288  0.48579430  0.16687234    -0.12100
C4510       C  0.55822702  0.99342337  0.12529210     0.04900
C4511       C  0.57359272  0.99044767  0.10216608    -0.07400
C4512       C  0.60054172  0.98931436  0.10587126    -0.08200
C4513       C  0.61284220  0.99119332  0.13207829    -0.02700
C4514       C  0.58594805  0.48170780  0.16870784     0.04100
N4515       N  0.59613782  0.47836028  0.19517354     0.66600
H4516       H  0.54802182  0.48447154  0.18537054     0.15500
H4517       H  0.61219316  0.98732348  0.08791214     0.15200
N4518       N  0.56222404  0.98776226  0.07486957     0.74300
O4519       O  0.61523958  0.50148780  0.20772679    -0.39100
O4520       O  0.58092564  0.45420812  0.20844231    -0.39100
O4521       O  0.55803639  0.96528915  0.06087144    -0.39800
O4522       O  0.56644790  0.01114528  0.06230116    -0.39800
C4523       C  0.01287709  0.93348797  0.15098729    -0.12100
C4524       C  0.99918592  0.94228057  0.13061647     0.04900
C4525       C  0.49200348  0.91907243  0.09707936    -0.07400
C4526       C  0.49411443  0.89278205  0.09589517    -0.08200
C4527       C  0.00260514  0.88865128  0.12539909    -0.02700
C4528       C  0.01492466  0.90723923  0.14858825     0.04100
N4529       N  0.02846560  0.89937177  0.17054815     0.66600
H4530       H  0.02176910  0.94701943  0.16923902     0.15500
H4531       H  0.48667910  0.87920992  0.07750324     0.15200
N4532       N  0.47971863  0.92682114  0.07395066     0.74300
O4533       O  0.05676874  0.91465915  0.17408271    -0.39100
O4534       O  0.01187046  0.88352331  0.19014619    -0.39100
O4535       O  0.49751670  0.94677227  0.05737580    -0.39800
O4536       O  0.45345108  0.90819848  0.06582608    -0.39800
C4537       C  0.92307937  0.94097121  0.11691594    -0.12100
C4538       C  0.94252845  0.94538769  0.13886560     0.04900
C4539       C  0.93321429  0.92270753  0.15931120    -0.07400
C4540       C  0.90516555  0.89626092  0.15669439    -0.08200
C4541       C  0.88580306  0.89177083  0.13428515    -0.02700
C4542       C  0.89498221  0.91510707  0.11463790     0.04100
N4543       N  0.87747499  0.91240022  0.09087392     0.66600
H4544       H  0.93042282  0.95729932  0.10036308     0.15500
H4545       H  0.89866418  0.87902809  0.17236933     0.15200
N4546       N  0.95178293  0.92557860  0.18253875     0.74300
O4547       O  0.85888357  0.92224149  0.09178556    -0.38300
O4548       O  0.88745352  0.90973636  0.06784762    -0.39100
O4549       O  0.95897329  0.90546363  0.18694371    -0.39800
O4550       O  0.95309995  0.94220636  0.20219458    -0.39800
C4551       C  0.90066261  0.49821215  0.15686417    -0.12100
C4552       C  0.89092170  0.00637060  0.13359234     0.04900
C4553       C  0.90962118  0.01194111  0.11036904    -0.07400
C4554       C  0.93659573  0.01063180  0.11275885    -0.08200
C4555       C  0.94579785  0.00446159  0.13804575    -0.02700
C4556       C  0.92740190  0.49678170  0.16002833     0.04100
N4557       N  0.93273352  0.48650842  0.18569300     0.66600
H4558       H  0.88468718  0.49137704  0.17387100     0.15500
H4559       H  0.94933224  0.01228422  0.09453864     0.15200
N4560       N  0.90044023  0.01668118  0.08390115     0.74300
O4561       O  0.95198131  0.50532147  0.20195263    -0.39100
O4562       O  0.91271982  0.46149014  0.19513687    -0.39100
O4563       O  0.91074737  0.04304287  0.07465987    -0.39800
O4564       O  0.87965173  0.99489748  0.07112234    -0.39800
C4565       C  0.80714128  0.57896794  0.41660963    -0.12100
C4566       C  0.82551959  0.58718747  0.44013130     0.04900
C4567       C  0.84218651  0.57228011  0.44594540    -0.07400
C4568       C  0.84118179  0.55066345  0.42803784    -0.08200
C4569       C  0.82428656  0.54344239  0.40372275    -0.02700
C4570       C  0.80657288  0.55736853  0.39830001     0.04100
N4571       N  0.78841849  0.55036004  0.37423932     0.66600
H4572       H  0.79384093  0.58986653  0.41205132     0.15500
H4573       H  0.85429461  0.53971270  0.43316433     0.15200
N4574       N  0.86007131  0.57845644  0.47023601     0.74300
O4575       O  0.76081923  0.53068819  0.37575046    -0.39100
O4576       O  0.79751841  0.56835863  0.35415903    -0.39100
O4577       O  0.84866065  0.56217746  0.49127179    -0.39800
O4578       O  0.88852258  0.59489920  0.46856200    -0.39800
C4579       C  0.80682602  0.57296691  0.07192386    -0.12100
C4580       C  0.83408785  0.59388528  0.05907502     0.04900
C4581       C  0.86089523  0.59303475  0.06514220    -0.07400
C4582       C  0.85970967  0.57086642  0.08264695    -0.08200
C4583       C  0.83233077  0.54906676  0.09499702    -0.02700
C4584       C  0.80571354  0.55073860  0.08967755     0.04100
N4585       N  0.77710250  0.52967143  0.10112021     0.66600
H4586       H  0.78595099  0.57338982  0.06774733     0.15500
H4587       H  0.88079035  0.57063881  0.08590563     0.15200
N4588       N  0.88933278  0.61325731  0.05248347     0.74300
O4589       O  0.76618358  0.53815850  0.12023801    -0.39100
O4590       O  0.75941851  0.50743067  0.08681453    -0.39100
O4591       O  0.90909819  0.63496863  0.06611726    -0.39800
O4592       O  0.89704005  0.60570344  0.03048033    -0.39800
C4593       C  0.76354492  0.68711814  0.41963593    -0.12100
C4594       C  0.75575430  0.67327549  0.44550817     0.04900
C4595       C  0.72554202  0.66079698  0.45497544    -0.07400
C4596       C  0.70322632  0.66037661  0.43778361    -0.08200
C4597       C  0.71072175  0.67337276  0.41148841    -0.02700
C4598       C  0.74131599  0.68742106  0.40266264     0.04100
N4599       N  0.74997400  0.70058362  0.37599674     0.66600
H4600       H  0.78681319  0.69713349  0.41232871     0.15500
H4601       H  0.67997755  0.65025608  0.44517224     0.15200
N4602       N  0.71768299  0.65018891  0.48262620     0.74300
O4603       O  0.75825247  0.72809364  0.37301150    -0.39100
O4604       O  0.75704591  0.68737792  0.35791662    -0.39100
O4605       O  0.71758456  0.65588849  0.00073300    -0.39800
O4606       O  0.70487774  0.62241085  0.48781003    -0.39800
C4607       C  0.92183892  0.76984814  0.44496317    -0.12100
C4608       C  0.90978147  0.73978746  0.43706734     0.04900
C4609       C  0.92114175  0.73319643  0.41306321    -0.07400
C4610       C  0.94417254  0.75676257  0.39762912    -0.08200
C4611       C  0.95656149  0.78684766  0.40607802    -0.02700
C4612       C  0.94521467  0.79312130  0.43025299     0.04100
N4613       N  0.95810032  0.82283780  0.44109329     0.66600
H4614       H  0.91371664  0.77540028  0.46343568     0.15500
H4615       H  0.95211328  0.75151345  0.37882132     0.15200
N4616       N  0.90868154  0.70310267  0.40336164     0.74300
O4617       O  0.94307300  0.83662239  0.43998665    -0.39100
O4618       O  0.47347321  0.83906921  0.45585925    -0.39100
O4619       O  0.88877000  0.69405946  0.38483179    -0.39800
O4620       O  0.92235613  0.68849575  0.40832940    -0.39800
C4621       C  0.74961841  0.68805741  0.06439515    -0.12100
C4622       C  0.76216938  0.66889469  0.06712716     0.04900
C4623       C  0.75478962  0.65019729  0.09059698    -0.07400
C4624       C  0.73435274  0.65017697  0.11014145    -0.08200
C4625       C  0.72090200  0.66833534  0.10666865    -0.02700
C4626       C  0.72874809  0.68757478  0.08368159     0.04100
N4627       N  0.71374321  0.70467927  0.07836423     0.66600
H4628       H  0.75466741  0.70227094  0.04636520     0.15500
H4629       H  0.72851266  0.63547870  0.12790448     0.15200
N4630       N  0.76783824  0.63119026  0.09499196     0.74300
O4631       O  0.72778379  0.73273476  0.08189817    -0.39100
O4632       O  0.68958141  0.69304337  0.06455588    -0.39100
O4633       O  0.75246760  0.60358262  0.08955019    -0.39800
O4634       O  0.79094640  0.64023195  0.11004487    -0.39800
C4635       C  0.93275319  0.78852128  0.08201821    -0.12100
C4636       C  0.95967967  0.78736841  0.08632896     0.04900
C4637       C  0.96202595  0.76306897  0.07497371    -0.07400
C4638       C  0.93794217  0.74107510  0.05960415    -0.08200
C4639       C  0.91128020  0.74269758  0.05481717    -0.02700
C4640       C  0.90899315  0.76693184  0.06642011     0.04100
N4641       N  0.88299912  0.77059290  0.06225736     0.66600
H4642       H  0.92996528  0.80659893  0.09060973     0.15500
H4643       H  0.94055755  0.72298038  0.05081417     0.15200
N4644       N  0.98907547  0.76091570  0.07761891     0.74300
O4645       O  0.86224909  0.76063934  0.08020880    -0.39100
O4646       O  0.88434765  0.78970486  0.04496832    -0.39100
O4647       O  0.48216997  0.73003437  0.10007258    -0.39800
O4648       O  0.00971345  0.77309633  0.05964730    -0.39800
C4649       C  0.55880030  0.75819264  0.44385712    -0.12100
C4650       C  0.58811060  0.76137310  0.44486918     0.04900
C4651       C  0.59472825  0.74271208  0.42799698    -0.07400
C4652       C  0.57186176  0.72035230  0.41228975    -0.08200
C4653       C  0.54228890  0.71618533  0.41231242    -0.02700
C4654       C  0.53590191  0.73578827  0.42786257     0.04100
N4655       N  0.50587254  0.73186805  0.42938848     0.66600
H4656       H  0.55308874  0.77210028  0.45660433     0.15500
H4657       H  0.57735616  0.70598761  0.40005925     0.15200
N4658       N  0.62449077  0.74592014  0.42649725     0.74300
O4659       O  0.48736016  0.71372899  0.44680901    -0.39100
O4660       O  0.00099184  0.75414286  0.41448919    -0.39100
O4661       O  0.62980546  0.72724693  0.43893560    -0.39800
O4662       O  0.64262450  0.76236988  0.40797295    -0.39800
C4663       C  0.57684909  0.73031273  0.05449370    -0.12100
C4664       C  0.59090207  0.76107512  0.06018118     0.04900
C4665       C  0.58373584  0.77060456  0.08496200    -0.07400
C4666       C  0.56294421  0.74920332  0.10363890    -0.08200
C4667       C  0.54961295  0.71830425  0.09807057    -0.02700
C4668       C  0.55649168  0.70906570  0.07296989     0.04100
N4669       N  0.54257465  0.67807185  0.06556858     0.66600
H4670       H  0.58153871  0.72255547  0.03531983     0.15500
H4671       H  0.55826559  0.75664100  0.12297895     0.15200
N4672       N  0.59863461  0.80166286  0.09206657     0.74300
O4673       O  0.51849956  0.66680106  0.05164313    -0.39100
O4674       O  0.55790092  0.66459870  0.06685971    -0.39100
O4675       O  0.58629431  0.81732538  0.08631259    -0.39800
O4676       O  0.62586158  0.81433277  0.10003371    -0.39800
C4677       C  0.69428579  0.93589723  0.43757795    -0.12100
C4678       C  0.66702121  0.90891395  0.44201137     0.04900
C4679       C  0.64069468  0.90500017  0.42836703    -0.07400
C4680       C  0.64179343  0.92809164  0.41188911    -0.08200
C4681       C  0.66873586  0.95562990  0.40847799    -0.02700
C4682       C  0.69537550  0.95914458  0.42127878     0.04100
N4683       N  0.72340011  0.98666656  0.41963417     0.66600
H4684       H  0.71484459  0.93976385  0.44792531     0.15500
H4685       H  0.62115971  0.92435777  0.40176378     0.15200
N4686       N  0.61269937  0.87751385  0.43044518     0.74300
O4687       O  0.72728721  0.00809831  0.43503828    -0.39100
O4688       O  0.74634590  0.98631038  0.40965352    -0.39100
O4689       O  0.59148106  0.87625751  0.44520639    -0.39800
O4690       O  0.60698113  0.85718491  0.41307277    -0.39800
C4691       C  0.75147790  0.85245019  0.42076131    -0.12100
C4692       C  0.73429740  0.82622912  0.43637902     0.04900
C4693       C  0.73696605  0.80044132  0.43030453    -0.07400
C4694       C  0.75839079  0.80235525  0.41080641    -0.08200
C4695       C  0.77738117  0.82947836  0.39709148    -0.02700
C4696       C  0.77265150  0.85425624  0.40122924     0.04100
N4697       N  0.78861052  0.88128281  0.38542901     0.66600
H4698       H  0.74886432  0.87208562  0.42392680     0.15500
H4699       H  0.76128513  0.78288841  0.40756818     0.15200
N4700       N  0.71945659  0.77258860  0.44456021     0.74300
O4701       O  0.77932216  0.88228488  0.36162473    -0.39100
O4702       O  0.80568225  0.90557911  0.39753508    -0.39100
O4703       O  0.69815325  0.75090938  0.43213273    -0.39800
O4704       O  0.73000362  0.76743118  0.46611512    -0.39800
C4705       C  0.69423891  0.91880167  0.07858125    -0.12100
C4706       C  0.67578520  0.91164811  0.05523680     0.04900
C4707       C  0.65922405  0.92694486  0.05076498    -0.07400
C4708       C  0.66007020  0.94753822  0.07011179    -0.08200
C4709       C  0.67714597  0.95358979  0.09434418    -0.02700
C4710       C  0.69480044  0.93928682  0.09819753     0.04100
N4711       N  0.71218714  0.94388529  0.12243477     0.66600
H4712       H  0.70729465  0.90744927  0.08227356     0.15500
H4713       H  0.64689760  0.95871921  0.06614915     0.15200
N4714       N  0.64187056  0.92234920  0.02634744     0.74300
O4715       O  0.69909573  0.92913760  0.14383728    -0.39100
O4716       O  0.74056402  0.95511183  0.12009869    -0.39100
O4717       O  0.61331815  0.90652893  0.02739529    -0.39800
O4718       O  0.65425870  0.93868377  0.00552724    -0.39800
C4719       C  0.77084246  0.83952806  0.04732502    -0.12100
C4720       C  0.74041139  0.82391059  0.05561723     0.04900
C4721       C  0.73283340  0.80878485  0.08114762    -0.07400
C4722       C  0.75604293  0.81033564  0.09809417    -0.08200
C4723       C  0.78674951  0.82693119  0.09000894    -0.02700
C4724       C  0.79393653  0.84108633  0.06397846     0.04100
N4725       N  0.82431716  0.85631970  0.05344771     0.66600
H4726       H  0.77678711  0.85031524  0.02730058     0.15500
H4727       H  0.75012342  0.79958336  0.11811871     0.15200
N4728       N  0.70218444  0.79369921  0.09099611     0.74300
O4729       O  0.83772320  0.84141647  0.04860625    -0.39100
O4730       O  0.83382412  0.88156070  0.04189789    -0.39100
O4731       O  0.68783780  0.76537330  0.09202954    -0.39800
O4732       O  0.69212157  0.80836187  0.10406112    -0.39800
Fe4733     Fe  0.70637317  0.86989135  0.49917493     1.65800
Fe4734     Fe  0.62986605  0.83370415  0.99961902     1.73200
Fe4735     Fe  0.66447958  0.79056658  0.99888698     1.54400
O4736       O  0.70002369  0.80254478  0.97079830    -0.81500
O4737       O  0.61190871  0.80623863  0.53770065    -0.79800
O4738       O  0.71937865  0.85160636  0.96402552    -0.84000
O4739       O  0.72611584  0.85402303  0.52713387    -0.78900
O4740       O  0.63549525  0.77660328  0.96603250    -0.80700
O4741       O  0.64737445  0.87128570  0.53284596    -0.83400
C4742       C  0.71989513  0.82893005  0.53802982     0.97400
C4743       C  0.71714431  0.82652876  0.95755888     1.04800
O4744       O  0.66690590  0.83024401  0.99899608    -1.12400
O4745       O  0.64270115  0.86043249  0.96464837    -0.74800
O4746       O  0.69231737  0.88882987  0.97130166    -0.78300
O4747       O  0.69628456  0.80453406  0.53231795    -0.79000
C4748       C  0.66812743  0.88313847  0.95867184     0.96300
O4749       O  0.69785466  0.89219708  0.53056404    -0.77000
O4750       O  0.60597719  0.79670292  0.97470848    -0.82200
C4751       C  0.61415221  0.78336369  0.54463097     0.98900
C4752       C  0.61177699  0.77854898  0.96163954     1.04800
O4753       O  0.63189673  0.77636102  0.53227036    -0.77800
C4754       C  0.67386574  0.89112784  0.54009357     1.03100
Fe4755     Fe  0.86849195  0.66519983  0.99751784     1.65800
Fe4756     Fe  0.79409971  0.63009602  0.49839006     1.73200
Fe4757     Fe  0.83503487  0.70638126  0.49717151     1.54400
O4758       O  0.86627830  0.72275866  0.52837724    -0.81500
O4759       O  0.76964379  0.64670182  0.97927678    -0.79800
O4760       O  0.89523015  0.70171780  0.52061422    -0.84000
O4761       O  0.88227242  0.69210020  0.96285967    -0.78900
O4762       O  0.80074947  0.69296713  0.52629440    -0.80700
O4763       O  0.79988618  0.61189509  0.96701845    -0.83400
C4764       C  0.88314927  0.71719981  0.95959815     0.97400
C4765       C  0.89014743  0.72098020  0.53246758     1.04800
O4766       O  0.83347315  0.66723281  0.49683835    -1.12400
O4767       O  0.80952231  0.60761414  0.52338165    -0.74800
O4768       O  0.85884941  0.63764771  0.52994105    -0.78300
O4769       O  0.86731167  0.72498250  0.97429281    -0.79000
C4770       C  0.83400599  0.61417614  0.53586683     0.96300
O4771       O  0.84914935  0.62761358  0.97234052    -0.77000
O4772       O  0.78133278  0.64376021  0.53324996    -0.82200
C4773       C  0.77709504  0.67132999  0.96693614     0.98900
C4774       C  0.78341539  0.66885977  0.53930226     1.04800
O4775       O  0.80238986  0.69482943  0.97038341    -0.77800
C4776       C  0.82372846  0.61052631  0.96100060     1.03100
C4777       C  0.97641950  0.99770209  0.62941720     0.02400
C4778       C  0.00384425  0.52838922  0.63203445     0.02400
C4779       C  0.53223876  0.52472649  0.63126400     0.02400
C4780       C  0.52644764  0.99825082  0.63296801     0.02400
C4781       C  0.00487922  0.97045208  0.62264004     0.02400
C4782       C  0.97693308  0.97006161  0.62804715     0.02400
C4783       C  0.81108732  0.97743288  0.63862841     0.80400
N4784       N  0.83831744  0.97816852  0.63945110    -0.77900
C4785       C  0.86310689  0.00036181  0.62703131     0.82800
N4786       N  0.85969847  0.52599106  0.61329527    -0.77900
C4787       C  0.83255474  0.52548600  0.61211194     0.82900
N4788       N  0.80898675  0.00000169  0.62520483    -0.79600
C4789       C  0.69417756  0.51070893  0.65202246     0.80400
N4790       N  0.66679057  0.50984343  0.65340743    -0.77900
C4791       C  0.64023703  0.99733127  0.63045672     0.82800
N4792       N  0.64435874  0.97690039  0.61605748    -0.77900
C4793       C  0.67259167  0.98047313  0.61230252     0.82900
N4794       N  0.69706502  0.00534032  0.62263601    -0.79600
C4795       C  0.69508258  0.66677884  0.61532887     0.80400
N4796       N  0.69686318  0.69017741  0.63012338    -0.77900
C4797       C  0.67319072  0.68598727  0.64656424     0.82800
N4798       N  0.64792680  0.65852291  0.64767422    -0.77900
C4799       C  0.64596612  0.63541850  0.63265182     0.82900
N4800       N  0.66965160  0.63959859  0.61664183    -0.79600
C4801       C  0.98753974  0.67305257  0.64780861     0.80400
N4802       N  0.00916637  0.69736081  0.63367307    -0.77900
C4803       C  0.53279212  0.69211415  0.62251714     0.82800
N4804       N  0.53308055  0.66562283  0.62324561    -0.77900
C4805       C  0.01213712  0.64554264  0.63582943     0.82900
N4806       N  0.98948476  0.64750639  0.64887904    -0.79600
C4807       C  0.81442797  0.82726035  0.60303617     0.80400
N4808       N  0.81019878  0.80398230  0.61967420    -0.77900
C4809       C  0.83234772  0.80722309  0.63746135     0.82800
N4810       N  0.85840933  0.83400061  0.63884329    -0.77900
C4811       C  0.86298005  0.85739199  0.62232973     0.82900
N4812       N  0.84078139  0.85375996  0.60455599    -0.79600
C4813       C  0.51820608  0.82652134  0.64489861     0.80400
N4814       N  0.51898238  0.85351946  0.64620630    -0.77900
C4815       C  0.00439293  0.85627787  0.62313934     0.82800
N4816       N  0.98462814  0.83438207  0.60635007    -0.77900
C4817       C  0.98111139  0.80619540  0.60673831     0.82900
N4818       N  0.99825774  0.79994985  0.62440209    -0.79600
Fe4819     Fe  0.84003922  0.63106116  0.75318372     1.65800
Fe4820     Fe  0.79378838  0.66188549  0.74965792     1.73200
Fe4821     Fe  0.86994332  0.70664386  0.75128159     1.54400
O4822       O  0.89435613  0.69488744  0.77765825    -0.81500
O4823       O  0.80378530  0.68928574  0.71486855    -0.79800
O4824       O  0.86592871  0.64648360  0.78824206    -0.84000
O4825       O  0.87842849  0.65068072  0.72845551    -0.78900
O4826       O  0.85316707  0.71858526  0.78450406    -0.80700
O4827       O  0.77791082  0.62432495  0.72493803    -0.83400
C4828       C  0.89367201  0.67502127  0.71500122     0.97400
C4829       C  0.88921860  0.67189975  0.79172991     1.04800
O4830       O  0.83453255  0.66648624  0.75101566    -1.12400
O4831       O  0.78037135  0.63449352  0.78444263    -0.74800
O4832       O  0.80259659  0.60653250  0.77842473    -0.78300
O4833       O  0.88982386  0.69765874  0.71813044    -0.79000
C4834       C  0.78341649  0.61178682  0.79063490     0.96300
O4835       O  0.81425018  0.61201144  0.71845149    -0.77000
O4836       O  0.80422699  0.69889016  0.77443801    -0.82200
C4837       C  0.82626574  0.71562855  0.71179004     0.98900
C4838       C  0.82764921  0.71757007  0.78745991     1.04800
O4839       O  0.85074077  0.72471398  0.72515846    -0.77800
C4840       C  0.78793228  0.60833394  0.71374828     1.03100
Fe4841     Fe  0.63094953  0.79276417  0.75064972     1.65800
Fe4842     Fe  0.70756180  0.83442070  0.74941096     1.73200
Fe4843     Fe  0.66391751  0.86792119  0.74475610     1.54400
O4844       O  0.63673290  0.85096798  0.71049513    -0.81500
O4845       O  0.72586161  0.87318271  0.77314362    -0.79800
O4846       O  0.60620100  0.80407804  0.72463720    -0.84000
O4847       O  0.61506163  0.80565535  0.78406433    -0.78900
O4848       O  0.70103628  0.88931225  0.71872865    -0.80700
O4849       O  0.69784129  0.80895664  0.78507631    -0.83400
C4850       C  0.61141480  0.82852438  0.78561637     0.97400
C4851       C  0.61229163  0.82610750  0.70893736     1.04800
O4852       O  0.66762805  0.83179607  0.74845509    -1.12400
O4853       O  0.69359195  0.79613036  0.72548044    -0.74800
O4854       O  0.64417234  0.77728113  0.71750627    -0.78300
O4855       O  0.62603995  0.85145729  0.77028844    -0.79000
C4856       C  0.66923538  0.77782146  0.71321426     0.96300
O4857       O  0.64993091  0.77531876  0.77678971    -0.77000
O4858       O  0.72170854  0.85989812  0.71380788    -0.82200
C4859       C  0.71694811  0.89039284  0.78383580     0.98900
C4860       C  0.71980666  0.88298462  0.70713368     1.04800
O4861       O  0.69117644  0.88797246  0.77860742    -0.77800
C4862       C  0.67437724  0.78389467  0.78993953     1.03100
C4863       C  0.52800938  0.49784836  0.85542306     0.02400
C4864       C  0.50141852  0.97290452  0.86949984     0.02400
C4865       C  0.97208540  0.97659587  0.85911011     0.02400
C4866       C  0.96954983  0.50091888  0.85504350     0.02400
C4867       C  0.50430822  0.52997532  0.85557754     0.02400
C4868       C  0.53074283  0.52690777  0.85471437     0.02400
C4869       C  0.69407485  0.52360409  0.86512043     0.80400
N4870       N  0.66622121  0.52095739  0.86183952    -0.77900
C4871       C  0.64128599  0.49794486  0.87334256     0.82800
N4872       N  0.64492124  0.97600114  0.88842571    -0.77900
C4873       C  0.67193589  0.97619448  0.88816298     0.82900
N4874       N  0.69676932  0.50202645  0.87972741    -0.79600
C4875       C  0.80924839  0.98742799  0.84825029     0.80400
N4876       N  0.80148985  0.50051189  0.87348852    -0.77900
C4877       C  0.82639577  0.52148349  0.88723014     0.82800
N4878       N  0.85335157  0.52182530  0.88383170    -0.77900
C4879       C  0.85568440  0.50176567  0.86722443     0.82900
N4880       N  0.83649725  0.98815896  0.84799392    -0.79600
C4881       C  0.98340483  0.67359695  0.85777691     0.80400
N4882       N  0.98246690  0.64675329  0.85589936    -0.77900
C4883       C  0.00290692  0.64182887  0.86941420     0.82800
N4884       N  0.52084265  0.66299415  0.89048457    -0.77900
C4885       C  0.51873599  0.68841882  0.89355389     0.82900
N4886       N  0.00515731  0.69594119  0.87322232    -0.79600
C4887       C  0.69138012  0.66820915  0.88814571     0.80400
N4888       N  0.69320807  0.69237929  0.87453194    -0.77900
C4889       C  0.67061118  0.68876717  0.85716448     0.82800
N4890       N  0.64675224  0.66095651  0.85339566    -0.77900
C4891       C  0.64462688  0.63681359  0.86688570     0.82900
N4892       N  0.66696927  0.64059100  0.88437840    -0.79600
C4893       C  0.52377170  0.82933557  0.86251572     0.80400
N4894       N  0.52407962  0.85607763  0.86246406    -0.77900
C4895       C  0.50393710  0.86043992  0.87723906     0.82800
N4896       N  0.97465653  0.83908349  0.88899559    -0.77900
C4897       C  0.97306611  0.81175234  0.89041539     0.82900
N4898       N  0.50267184  0.80625351  0.87812017    -0.79600
C4899       C  0.80481546  0.83631497  0.87570843     0.80400
N4900       N  0.80431541  0.81237367  0.86292925    -0.77900
C4901       C  0.82920737  0.81545899  0.84918871     0.82800
N4902       N  0.85460501  0.84267061  0.84846756    -0.77900
C4903       C  0.85570442  0.86674228  0.86127027     0.82900
N4904       N  0.83068706  0.86346527  0.87493307    -0.79600
C4905       C  0.00250036  0.57437166  0.83864843    -0.12100
C4906       C  0.50646406  0.55978559  0.86107471     0.04900
C4907       C  0.51275547  0.57314046  0.88750532    -0.07400
C4908       C  0.51178017  0.60005807  0.89140619    -0.08200
C4909       C  0.00213693  0.61305654  0.86678997    -0.02700
C4910       C  0.00434331  0.60240979  0.84083345     0.04100
N4911       N  0.00874003  0.62004360  0.81661891     0.66600
H4912       H  0.00365706  0.56603194  0.81860599     0.15500
H4913       H  0.51568445  0.60992719  0.91165164     0.15200
N4914       N  0.51971779  0.55980271  0.91055731     0.74300
O4915       O  0.03398219  0.64324166  0.81223091    -0.39100
O4916       O  0.98632672  0.61479212  0.80167280    -0.39100
O4917       O  0.53699109  0.57628102  0.92930153    -0.39800
O4918       O  0.50752331  0.53164299  0.91319640    -0.39800
C4919       C  0.57783890  0.55929747  0.88082542    -0.12100
C4920       C  0.56123896  0.55415286  0.85643861     0.04900
C4921       C  0.57306225  0.57590344  0.83515829    -0.07400
C4922       C  0.60090184  0.60194016  0.83880310    -0.08200
C4923       C  0.61721164  0.60729558  0.86330601    -0.02700
C4924       C  0.60564300  0.58545111  0.88437995     0.04100
N4925       N  0.62069599  0.59034312  0.91018412     0.66600
H4926       H  0.56855288  0.54341326  0.89769570     0.15500
H4927       H  0.60967715  0.61835866  0.82229948     0.15200
N4928       N  0.55687491  0.57281647  0.81017236     0.74300
O4929       O  0.61762455  0.60652561  0.92808020    -0.39100
O4930       O  0.63856188  0.58006019  0.91443528    -0.39100
O4931       O  0.55338246  0.59444261  0.80198704    -0.39800
O4932       O  0.55340569  0.55277713  0.79321821    -0.39800
C4933       C  0.90437735  0.90160278  0.83815029    -0.12100
C4934       C  0.88450375  0.89575483  0.86049388     0.04900
C4935       C  0.89360194  0.91681362  0.88199341    -0.07400
C4936       C  0.92211364  0.94262751  0.88091612    -0.08200
C4937       C  0.94202578  0.94846540  0.85865913    -0.02700
C4938       C  0.93290399  0.92747723  0.83697482     0.04100
N4939       N  0.95218725  0.93136724  0.81387582     0.66600
H4940       H  0.89774371  0.88588393  0.82128036     0.15500
H4941       H  0.92913702  0.95793360  0.89810970     0.15200
N4942       N  0.87505128  0.91178998  0.90578984     0.74300
O4943       O  0.95850275  0.91085555  0.80844110    -0.39100
O4944       O  0.95474272  0.94944253  0.79499230    -0.39100
O4945       O  0.87750012  0.89740631  0.92585051    -0.39800
O4946       O  0.86286701  0.92800096  0.90952401    -0.39800
C4947       C  0.93492513  0.01233466  0.88435988    -0.12100
C4948       C  0.94045829  0.50199441  0.85693375     0.04900
C4949       C  0.92823483  0.51111975  0.83505788    -0.07400
C4950       C  0.90039198  0.51075069  0.83877983    -0.08200
C4951       C  0.88491824  0.50222110  0.86398936    -0.02700
C4952       C  0.90733475  0.01240310  0.88696259     0.04100
N4953       N  0.89802574  0.01667911  0.91356820     0.66600
H4954       H  0.94847210  0.01571300  0.90248976     0.15500
H4955       H  0.89088893  0.51734937  0.82194975     0.15200
N4956       N  0.94370627  0.52147457  0.80927702     0.74300
O4957       O  0.88272880  0.99416260  0.92885430    -0.39100
O4958       O  0.91061441  0.04261977  0.92387593    -0.39100
O4959       O  0.94975973  0.54718074  0.80066833    -0.39800
O4960       O  0.94292700  0.50263771  0.79216416    -0.39800
C4961       C  0.60449271  0.50144386  0.84249184    -0.12100
C4962       C  0.61130486  0.49535106  0.86874327     0.04900
C4963       C  0.59319119  0.98958044  0.89701867    -0.07400
C4964       C  0.56625392  0.99090531  0.89490712    -0.08200
C4965       C  0.55583482  0.49464651  0.85871369    -0.02700
C4966       C  0.57696939  0.50080481  0.83711794     0.04100
N4967       N  0.57149586  0.50701601  0.80970365     0.66600
H4968       H  0.62068923  0.50659192  0.82588194     0.15500
H4969       H  0.55195892  0.98621825  0.91287475     0.15200
N4970       N  0.60142087  0.98229253  0.92286070     0.74300
O4971       O  0.55231237  0.48576135  0.79530003    -0.39100
O4972       O  0.59188119  0.53002187  0.79761724    -0.39100
O4973       O  0.62311478  0.00238318  0.93634116    -0.39800
O4974       O  0.58983850  0.95518438  0.93034942    -0.39800
C4975       C  0.51386352  0.93506454  0.85073083    -0.12100
C4976       C  0.50180190  0.94391654  0.87240875     0.04900
C4977       C  0.98807196  0.92917263  0.89191965    -0.07400
C4978       C  0.98733584  0.90140992  0.89372829    -0.08200
C4979       C  0.50389710  0.88948835  0.87532401    -0.02700
C4980       C  0.51538683  0.90851692  0.85200824     0.04100
N4981       N  0.52791669  0.90113137  0.82886108     0.66600
H4982       H  0.52154045  0.94843502  0.83251448     0.15500
H4983       H  0.97930353  0.88844387  0.91243931     0.15200
N4984       N  0.97977494  0.94020204  0.91557344     0.74300
O4985       O  0.51094460  0.88769236  0.80882167    -0.39100
O4986       O  0.55635276  0.91490724  0.82533770    -0.39100
O4987       O  0.00034745  0.95719482  0.93188785    -0.39800
O4988       O  0.95280378  0.92599430  0.92439297    -0.39800
C4989       C  0.64644787  0.73711480  0.81682530    -0.12100
C4990       C  0.67447638  0.76250756  0.81062586     0.04900
C4991       C  0.70114436  0.76460746  0.82207691    -0.07400
C4992       C  0.69931391  0.74090428  0.83819551    -0.08200
C4993       C  0.67138584  0.71465981  0.84261999    -0.02700
C4994       C  0.64462860  0.71320903  0.83200256     0.04100
N4995       N  0.61529626  0.68736509  0.83554309     0.66600
H4996       H  0.62544396  0.73495802  0.80886592     0.15500
H4997       H  0.72008236  0.74253655  0.84617088     0.15200
N4998       N  0.73035143  0.78976806  0.81657407     0.74300
O4999       O  0.59821705  0.68700587  0.85469839    -0.39100
O5000       O  0.60383027  0.66920924  0.81590200    -0.39100
O5001       O  0.74297417  0.80959059  0.83473616    -0.39800
O5002       O  0.74603373  0.78861270  0.79683356    -0.39800
C5003       C  0.57922326  0.80824244  0.82793706    -0.12100
C5004       C  0.58873931  0.82815962  0.80533802     0.04900
C5005       C  0.57520682  0.84643199  0.80135491    -0.07400
C5006       C  0.55283210  0.84423198  0.81940094    -0.08200
C5007       C  0.54461227  0.82599144  0.84296890    -0.02700
C5008       C  0.55779624  0.80739393  0.84705710     0.04100
N5009       N  0.55093898  0.78851273  0.87073327     0.66600
H5010       H  0.58927173  0.79399580  0.83137777     0.15500
H5011       H  0.54239083  0.85787200  0.81510934     0.15200
N5012       N  0.58395221  0.86788123  0.77944330     0.74300
O5013       O  0.54157516  0.76085786  0.86745053    -0.39100
O5014       O  0.56227799  0.80021850  0.89351564    -0.39100
O5015       O  0.56415385  0.86536058  0.76233075    -0.39800
O5016       O  0.60720585  0.89326417  0.78241922    -0.39800
C5017       C  0.75407218  0.95182966  0.83847113    -0.12100
C5018       C  0.78473770  0.96522817  0.83021361     0.04900
C5019       C  0.79200418  0.95438111  0.80615520    -0.07400
C5020       C  0.76944321  0.92993006  0.79212919    -0.08200
C5021       C  0.73908600  0.91580137  0.80079573    -0.02700
C5022       C  0.73124900  0.92732450  0.82398100     0.04100
N5023       N  0.70075665  0.91334838  0.83416632     0.66600
H5024       H  0.74790715  0.95946700  0.85691267     0.15500
H5025       H  0.77581795  0.92224095  0.77380515     0.15200
N5026       N  0.82218717  0.96812461  0.79517119     0.74300
O5027       O  0.69239525  0.89259399  0.85182557    -0.39100
O5028       O  0.68521070  0.92639221  0.83093857    -0.39100
O5029       O  0.83695189  0.95407538  0.79641930    -0.39800
O5030       O  0.83037347  0.98946705  0.77817691    -0.39800
C5031       C  0.93050301  0.66294761  0.85301997    -0.12100
C5032       C  0.96042078  0.67744993  0.84294040     0.04900
C5033       C  0.96653031  0.68998383  0.81640532    -0.07400
C5034       C  0.94307070  0.68956734  0.80101567    -0.08200
C5035       C  0.91299126  0.67469097  0.81077566    -0.02700
C5036       C  0.90662629  0.66103047  0.83698776     0.04100
N5037       N  0.87619981  0.64455836  0.84728293     0.66600
H5038       H  0.92549596  0.65174672  0.87283800     0.15500
H5039       H  0.94802140  0.69883487  0.78036668     0.15200
N5040       N  0.99529188  0.69937957  0.80345482     0.74300
O5041       O  0.86196974  0.61631746  0.84515712    -0.39100
O5042       O  0.86652288  0.65707227  0.86374060    -0.39100
O5043       O  0.99998437  0.68005780  0.79156758    -0.39800
O5044       O  0.01258924  0.72684214  0.79830830    -0.39800
C5045       C  0.74193653  0.59624638  0.82551642    -0.12100
C5046       C  0.76331676  0.59036077  0.81240862     0.04900
C5047       C  0.76397476  0.56367063  0.81985027    -0.07400
C5048       C  0.74278024  0.54336590  0.83885848    -0.08200
C5049       C  0.72015961  0.54842540  0.85030102    -0.02700
C5050       C  0.72047822  0.57573268  0.84401482     0.04100
N5051       N  0.69877986  0.58290819  0.85578572     0.66600
H5052       H  0.74111740  0.61661861  0.82084032     0.15500
H5053       H  0.74283747  0.52254879  0.84324165     0.15200
N5054       N  0.78471126  0.55571407  0.80731794     0.74300
O5055       O  0.70533476  0.59806898  0.87758757    -0.39100
O5056       O  0.67703655  0.58058387  0.84130166    -0.39100
O5057       O  0.80608772  0.55664366  0.82142121    -0.39800
O5058       O  0.77707231  0.54060308  0.78546164    -0.39800
C5059       C  0.80099391  0.76673772  0.82459061    -0.12100
C5060       C  0.82864787  0.78951966  0.83490553     0.04900
C5061       C  0.85524182  0.78727426  0.83069904    -0.07400
C5062       C  0.85354945  0.76262034  0.81685468    -0.08200
C5063       C  0.82623171  0.74037862  0.80552713    -0.02700
C5064       C  0.79958585  0.74267746  0.80952812     0.04100
N5065       N  0.77138558  0.72215437  0.79702416     0.66600
H5066       H  0.78042681  0.76822052  0.82721021     0.15500
H5067       H  0.87445773  0.76183872  0.81391803     0.15200
N5068       N  0.88444625  0.80981615  0.83988217     0.74300
O5069       O  0.75137376  0.70060520  0.81091638    -0.39100
O5070       O  0.76393932  0.72944747  0.77475530    -0.39100
O5071       O  0.89791499  0.80279217  0.85779205    -0.39800
O5072       O  0.90005672  0.83212227  0.82445516    -0.39800
C5073       C  0.56547110  0.82804158  0.70486956    -0.12100
C5074       C  0.58781552  0.82396555  0.69162038     0.04900
C5075       C  0.58499316  0.81656304  0.66363197    -0.07400
C5076       C  0.56053878  0.81517076  0.64861983    -0.08200
C5077       C  0.53946792  0.82164605  0.66168351    -0.02700
C5078       C  0.54148522  0.82713876  0.69002465     0.04100
N5079       N  0.51922263  0.83161067  0.70429910     0.66600
H5080       H  0.56671078  0.83178257  0.72612676     0.15500
H5081       H  0.55859313  0.81043590  0.62804153     0.15200
N5082       N  0.60642300  0.81023364  0.65009642     0.74300
O5083       O  0.49420281  0.80909899  0.71081538    -0.39100
O5084       O  0.52729139  0.85624249  0.71619780    -0.39100
O5085       O  0.60049429  0.78332073  0.64745480    -0.39800
O5086       O  0.62775986  0.83055083  0.63618278    -0.39800
C5087       C  0.81593471  0.73067018  0.66542510    -0.12100
C5088       C  0.82436502  0.73766198  0.69304078     0.04900
C5089       C  0.83365770  0.76712854  0.70230224    -0.07400
C5090       C  0.83548906  0.78912344  0.68397506    -0.08200
C5091       C  0.82805046  0.78252011  0.65626319    -0.02700
C5092       C  0.81806206  0.75299214  0.64698983     0.04100
N5093       N  0.81200582  0.74595159  0.61858200     0.66600
H5094       H  0.80915609  0.70832779  0.65787574     0.15500
H5095       H  0.84288780  0.81161828  0.69148716     0.15200
N5096       N  0.84084153  0.77498581  0.73051430     0.74300
O5097       O  0.83377225  0.75450749  0.60170886    -0.39100
O5098       O  0.78540561  0.73631589  0.60982046    -0.39100
O5099       O  0.86829708  0.78951922  0.73767786    -0.39800
O5100       O  0.82048391  0.77365848  0.74651700    -0.39800
C5101       C  0.91196695  0.64914936  0.68384545    -0.12100
C5102       C  0.91672446  0.67619746  0.69533912     0.04900
C5103       C  0.94432129  0.70264582  0.68972531    -0.07400
C5104       C  0.96663970  0.70144438  0.67327562    -0.08200
C5105       C  0.96221350  0.67409951  0.66253525    -0.02700
C5106       C  0.93424807  0.64772551  0.66792726     0.04100
N5107       N  0.92781830  0.61905634  0.65762253     0.66600
H5108       H  0.89085954  0.62858114  0.68768520     0.15500
H5109       H  0.98798985  0.72185119  0.66982382     0.15200
N5110       N  0.95091725  0.73052021  0.70195012     0.74300
O5111       O  0.92609368  0.59926060  0.67426124    -0.39100
O5112       O  0.91534245  0.61099709  0.63451424    -0.39100
O5113       O  0.96630393  0.73870562  0.72371876    -0.39800
O5114       O  0.94675239  0.74924273  0.68830165    -0.39800
C5115       C  0.69832133  0.75849304  0.68646400    -0.12100
C5116       C  0.67005568  0.75563723  0.69404531     0.04900
C5117       C  0.64322879  0.73031555  0.68477828    -0.07400
C5118       C  0.64523537  0.70851571  0.66918064    -0.08200
C5119       C  0.67336450  0.71096981  0.66212856    -0.02700
C5120       C  0.70020926  0.73640355  0.67088339     0.04100
N5121       N  0.72939569  0.73899786  0.66631884     0.66600
H5122       H  0.71921951  0.77749361  0.69343912     0.15500
H5123       H  0.62426020  0.68904952  0.66308187     0.15200
N5124       N  0.61358572  0.72524423  0.69207288     0.74300
O5125       O  0.74624458  0.75601142  0.64742694    -0.39100
O5126       O  0.74087992  0.73034258  0.68481267    -0.39100
O5127       O  0.59802566  0.72966253  0.67429851    -0.39800
O5128       O  0.60034791  0.70914387  0.71280861    -0.39800
C5129       C  0.74883781  0.55080829  0.65688393    -0.12100
C5130       C  0.71965188  0.53360934  0.66857498     0.04900
C5131       C  0.71442960  0.54067591  0.69538275    -0.07400
C5132       C  0.73728167  0.56512349  0.70909742    -0.08200
C5133       C  0.76611596  0.58244818  0.69746134    -0.02700
C5134       C  0.77241647  0.57438510  0.67155218     0.04100
N5135       N  0.80221574  0.58993502  0.65979570     0.66600
H5136       H  0.75339170  0.54594828  0.63632767     0.15500
H5137       H  0.73251911  0.57031088  0.72952871     0.15200
N5138       N  0.68613667  0.52319639  0.70935487     0.74300
O5139       O  0.82001133  0.57937034  0.66295256    -0.39100
O5140       O  0.80820705  0.60986201  0.64172255    -0.39100
O5141       O  0.68018653  0.49804311  0.71936140    -0.39800
O5142       O  0.67225087  0.53626289  0.71857032    -0.39800
C5143       C  0.73705550  0.92888230  0.67808294    -0.12100
C5144       C  0.74083424  0.90436743  0.68602859     0.04900
C5145       C  0.76595455  0.90256518  0.67524979    -0.07400
C5146       C  0.78730050  0.92583973  0.65866503    -0.08200
C5147       C  0.78477807  0.95156717  0.65249193    -0.02700
C5148       C  0.75860077  0.95226556  0.66167427     0.04100
N5149       N  0.75409866  0.97720004  0.65612753     0.66600
H5150       H  0.71774025  0.93069914  0.68550724     0.15500
H5151       H  0.80666239  0.92403493  0.65136175     0.15200
N5152       N  0.77117765  0.87813647  0.68183446     0.74300
O5153       O  0.73661784  0.97509870  0.63679470    -0.39100
O5154       O  0.78992621  0.51048120  0.69981507    -0.39100
O5155       O  0.76525901  0.85794560  0.66421816    -0.39800
O5156       O  0.78809499  0.88059328  0.70181427    -0.39800
C5157       C  0.57730701  0.56498719  0.60848094    -0.12100
C5158       C  0.56159570  0.55306538  0.63303454     0.04900
C5159       C  0.57447324  0.56775671  0.65804645    -0.07400
C5160       C  0.60211126  0.59471434  0.65749982    -0.08200
C5161       C  0.61765643  0.60655473  0.63265983    -0.02700
C5162       C  0.60528058  0.59113872  0.60801710     0.04100
N5163       N  0.62015791  0.60231258  0.58216901     0.66600
H5164       H  0.56746109  0.55399746  0.58943616     0.15500
H5165       H  0.61172849  0.60618428  0.67661895     0.15200
N5166       N  0.56064372  0.55555631  0.68411697     0.74300
O5167       O  0.63566298  0.59143495  0.57188494    -0.39100
O5168       O  0.61232814  0.61756392  0.56718603    -0.39100
O5169       O  0.57143793  0.54240248  0.69845254    -0.39800
O5170       O  0.54680264  0.56709048  0.69635868    -0.39800
C5171       C  0.50113324  0.56488148  0.65640169    -0.12100
C5172       C  0.00541195  0.55833007  0.63197779     0.04900
C5173       C  0.01445980  0.57737696  0.60860905    -0.07400
C5174       C  0.01791767  0.60630788  0.61067735    -0.08200
C5175       C  0.01193543  0.61646563  0.63545838    -0.02700
C5176       C  0.50448131  0.59353347  0.65958247     0.04100
N5177       N  0.50305947  0.60357471  0.68664956     0.66600
H5178       H  0.49665052  0.55079399  0.67424848     0.15500
H5179       H  0.02410145  0.62041738  0.59252160     0.15200
N5180       N  0.01912524  0.56754278  0.58241903     0.74300
O5181       O  0.47870717  0.58988668  0.70030768    -0.39100
O5182       O  0.52753131  0.61980636  0.69917680    -0.39100
O5183       O  0.04472524  0.58204296  0.57084129    -0.39800
O5184       O  0.99635791  0.55161462  0.56772995    -0.39800
C5185       C  0.57357127  0.49755363  0.65511379    -0.12100
C5186       C  0.55511922  0.99657051  0.63153970     0.04900
C5187       C  0.56579136  0.98940058  0.60733662    -0.07400
C5188       C  0.59297560  0.98836620  0.60800585    -0.08200
C5189       C  0.61009894  0.99494063  0.63205155    -0.02700
C5190       C  0.60013523  0.49575539  0.65856531     0.04100
N5191       N  0.61008062  0.49504608  0.68584491     0.66600
H5192       H  0.56094723  0.49756178  0.67306902     0.15500
H5193       H  0.60146011  0.98369363  0.58922088     0.15200
N5194       N  0.54983992  0.98325675  0.58188786     0.74300
O5195       O  0.61399720  0.51577522  0.70217872    -0.39100
O5196       O  0.60642213  0.47050962  0.69551634    -0.39100
O5197       O  0.54484724  0.95996576  0.56881382    -0.39800
O5198       O  0.54900565  0.00436492  0.56907851    -0.39800
C5199       C  0.02026002  0.93514546  0.64220513    -0.12100
C5200       C  0.00612496  0.94185284  0.62076943     0.04900
C5201       C  0.48478652  0.92183870  0.60903596    -0.07400
C5202       C  0.48676929  0.89539422  0.60923824    -0.08200
C5203       C  0.00723984  0.88676256  0.62207458    -0.02700
C5204       C  0.02159906  0.90846908  0.64286582     0.04100
N5205       N  0.03639905  0.90362260  0.66569295     0.66600
H5206       H  0.02967537  0.95050463  0.65924593     0.15500
H5207       H  0.47740825  0.88026587  0.59200616     0.15200
N5208       N  0.46972304  0.92689250  0.58643563     0.74300
O5209       O  0.06355574  0.90922400  0.66287137    -0.39100
O5210       O  0.02639445  0.90338906  0.68954273    -0.39100
O5211       O  0.48485584  0.94766395  0.56944048    -0.39800
O5212       O  0.44399181  0.90600682  0.57937396    -0.39800
C5213       C  0.92767676  0.93633620  0.60680382    -0.12100
C5214       C  0.94762541  0.94114737  0.62841203     0.04900
C5215       C  0.93951676  0.91819159  0.64843841    -0.07400
C5216       C  0.91184710  0.89131700  0.64601552    -0.08200
C5217       C  0.89173527  0.88664882  0.62425382    -0.02700
C5218       C  0.90006672  0.90992224  0.60464786     0.04100
N5219       N  0.88208440  0.90673518  0.58111929     0.66600
H5220       H  0.93413799  0.95297923  0.59059151     0.15500
H5221       H  0.90604422  0.87405764  0.66152684     0.15200
N5222       N  0.95875221  0.92128082  0.67118700     0.74300
O5223       O  0.86437350  0.91763420  0.58174763    -0.38300
O5224       O  0.89102613  0.90245816  0.55817785    -0.39100
O5225       O  0.96465018  0.90039800  0.67631767    -0.39800
O5226       O  0.96276643  0.93997642  0.68980160    -0.39800
C5227       C  0.90189783  0.50000136  0.65495929    -0.12100
C5228       C  0.89204232  0.99994472  0.62759792     0.04900
C5229       C  0.91095844  0.00761217  0.60426468    -0.07400
C5230       C  0.93784293  0.00611997  0.60544363    -0.08200
C5231       C  0.94704494  0.99821698  0.62981784    -0.02700
C5232       C  0.92885131  0.49867994  0.65682754     0.04100
N5233       N  0.93648497  0.49105445  0.68275979     0.66600
H5234       H  0.88799998  0.49577872  0.67325141     0.15500
H5235       H  0.95099488  0.00999445  0.58715147     0.15200
N5236       N  0.90264603  0.01582382  0.57891617     0.74300
O5237       O  0.95380816  0.51193777  0.69853912    -0.39100
O5238       O  0.91827579  0.46591237  0.69325932    -0.39100
O5239       O  0.91522555  0.04306716  0.57165515    -0.39800
O5240       O  0.88090377  0.99630970  0.56505717    -0.39800
C5241       C  0.84447153  0.57822064  0.94485081    -0.12100
C5242       C  0.82257575  0.58735266  0.94148726     0.04900
C5243       C  0.80070201  0.57359622  0.92049869    -0.07400
C5244       C  0.80210901  0.55221193  0.90299847    -0.08200
C5245       C  0.82452783  0.54354310  0.90633437    -0.02700
C5246       C  0.84545269  0.55659808  0.92806278     0.04100
N5247       N  0.86697056  0.54703320  0.93468094     0.66600
H5248       H  0.86084904  0.58741603  0.96132175     0.15500
H5249       H  0.78572495  0.54258052  0.88660167     0.15200
N5250       N  0.77744133  0.58145278  0.91614439     0.74300
O5251       O  0.89424165  0.56290214  0.92701952    -0.39100
O5252       O  0.86080477  0.52825409  0.95392016    -0.39100
O5253       O  0.78016718  0.59892328  0.89660076    -0.39800
O5254       O  0.75174053  0.56584878  0.92729082    -0.39800
C5255       C  0.80562832  0.56623015  0.56283711    -0.12100
C5256       C  0.83311876  0.59293838  0.55750662     0.04900
C5257       C  0.85927937  0.59770616  0.57197885    -0.07400
C5258       C  0.85778742  0.57569991  0.59001214    -0.08200
C5259       C  0.83074761  0.54863537  0.59469463    -0.02700
C5260       C  0.80426517  0.54409867  0.58098806     0.04100
N5261       N  0.77659987  0.51622314  0.58304566     0.66600
H5262       H  0.78512930  0.56175058  0.55199090     0.15500
H5263       H  0.87853666  0.57957114  0.59985237     0.15200
N5264       N  0.88791148  0.62429244  0.56818159     0.74300
O5265       O  0.75419020  0.51540028  0.59540704    -0.39100
O5266       O  0.77215551  0.49534138  0.56669022    -0.39100
O5267       O  0.89632007  0.64531731  0.58534409    -0.39800
O5268       O  0.90721439  0.62383221  0.55190376    -0.39800
C5269       C  0.76590420  0.68947848  0.92363946    -0.12100
C5270       C  0.75529550  0.67254973  0.94786659     0.04900
C5271       C  0.72385136  0.65617819  0.95318325    -0.07400
C5272       C  0.70353458  0.65549012  0.93350157    -0.08200
C5273       C  0.71403329  0.67167556  0.90879732    -0.02700
C5274       C  0.74556345  0.68931361  0.90414621     0.04100
N5275       N  0.75743204  0.70535603  0.87901722     0.66600
H5276       H  0.79007138  0.70216813  0.91941365     0.15500
H5277       H  0.67940803  0.64252273  0.93771165     0.15200
N5278       N  0.71233028  0.64098628  0.97884912     0.74300
O5279       O  0.76303900  0.73227588  0.87739624    -0.39100
O5280       O  0.77046100  0.69618451  0.86255270    -0.39100
O5281       O  0.72566677  0.66874750  0.50208309    -0.39800
O5282       O  0.69899418  0.61267080  0.97995229    -0.39800
C5283       C  0.90423539  0.76687284  0.93672828    -0.12100
C5284       C  0.90419808  0.73939782  0.93917214     0.04900
C5285       C  0.92610801  0.73552308  0.92422480    -0.07400
C5286       C  0.94751838  0.75899810  0.90786615    -0.08200
C5287       C  0.94855582  0.78703694  0.90668459    -0.02700
C5288       C  0.92635725  0.79075092  0.92147926     0.04100
N5289       N  0.92695903  0.81904264  0.92322016     0.66600
H5290       H  0.88789135  0.77071502  0.94799759     0.15500
H5291       H  0.96402301  0.75535168  0.89670613     0.15200
N5292       N  0.92797129  0.70853327  0.92617948     0.74300
O5293       O  0.90698418  0.82260389  0.91089006    -0.39100
O5294       O  0.47763931  0.82982023  0.96326388    -0.39100
O5295       O  0.91750148  0.68968225  0.90699147    -0.39800
O5296       O  0.94618111  0.70713101  0.94304428    -0.39800
C5297       C  0.75537998  0.69265576  0.55990841    -0.12100
C5298       C  0.76359340  0.66997847  0.56122536     0.04900
C5299       C  0.75022642  0.64744401  0.58170390    -0.07400
C5300       C  0.72917908  0.64798006  0.60006082    -0.08200
C5301       C  0.72029477  0.66997666  0.59797526    -0.02700
C5302       C  0.73323981  0.69228550  0.57752583     0.04100
N5303       N  0.72185427  0.71258254  0.57244336     0.66600
H5304       H  0.76458467  0.70962618  0.54388869     0.15500
H5305       H  0.71887869  0.63041635  0.61549447     0.15200
N5306       N  0.75686035  0.62328233  0.58369262     0.74300
O5307       O  0.73711072  0.73961489  0.57979606    -0.39100
O5308       O  0.70046635  0.70528245  0.55558693    -0.39100
O5309       O  0.73824256  0.59792584  0.57411942    -0.39800
O5310       O  0.77675391  0.62518698  0.60040609    -0.39800
C5311       C  0.94495754  0.79327802  0.56797148    -0.12100
C5312       C  0.95840798  0.78330775  0.58774273     0.04900
C5313       C  0.94907122  0.75221912  0.58874753    -0.07400
C5314       C  0.92711850  0.73235778  0.57034714    -0.08200
C5315       C  0.91328147  0.74251714  0.55140313    -0.02700
C5316       C  0.92249550  0.77337586  0.55027751     0.04100
N5317       N  0.91025760  0.78526621  0.53051881     0.66600
H5318       H  0.95164038  0.81686299  0.56610270     0.15500
H5319       H  0.92014466  0.70864359  0.57147778     0.15200
N5320       N  0.96008239  0.73985975  0.60908121     0.74300
O5321       O  0.88808148  0.78886033  0.53731834    -0.39100
O5322       O  0.92646787  0.79971007  0.51018859    -0.39100
O5323       O  0.46954112  0.73513547  0.62057989    -0.39800
O5324       O  0.97634950  0.72868617  0.60153773    -0.39800
C5325       C  0.55978721  0.75470478  0.94169014    -0.12100
C5326       C  0.58916824  0.75795356  0.94158935     0.04900
C5327       C  0.59536647  0.73973366  0.92378784    -0.07400
C5328       C  0.57201670  0.71767964  0.90826929    -0.08200
C5329       C  0.54243029  0.71349192  0.90937002    -0.02700
C5330       C  0.53650311  0.73279225  0.92576619     0.04100
N5331       N  0.50679570  0.72960990  0.92761723     0.66600
H5332       H  0.55439598  0.76848559  0.95496797     0.15500
H5333       H  0.57715373  0.70358696  0.89523815     0.15200
N5334       N  0.62513849  0.74318581  0.92100995     0.74300
O5335       O  0.48828076  0.71185964  0.94525183    -0.39100
O5336       O  0.05573018  0.77005729  0.86820290    -0.39100
O5337       O  0.63083130  0.72401970  0.93192529    -0.39800
O5338       O  0.64270612  0.76042007  0.90255487    -0.39800
C5339       C  0.60024673  0.73921701  0.57499541    -0.12100
C5340       C  0.59515017  0.76293953  0.56733987     0.04900
C5341       C  0.57103589  0.76494454  0.58016564    -0.07400
C5342       C  0.55191555  0.74259151  0.59914029    -0.08200
C5343       C  0.55567598  0.71749983  0.60507217    -0.02700
C5344       C  0.58091206  0.71661867  0.59309330     0.04100
N5345       N  0.58740717  0.69278456  0.59853407     0.66600
H5346       H  0.61898583  0.73735115  0.56611353     0.15500
H5347       H  0.53368883  0.74454174  0.60888409     0.15200
N5348       N  0.56497103  0.78877900  0.57327674     0.74300
O5349       O  0.57789973  0.67098485  0.58211892    -0.39100
O5350       O  0.60893504  0.69753147  0.61445231    -0.39100
O5351       O  0.54797610  0.78561179  0.55315889    -0.39800
O5352       O  0.58235508  0.81486669  0.58212153    -0.39800
C5353       C  0.69712922  0.93266979  0.93497628    -0.12100
C5354       C  0.67010848  0.90497905  0.93727442     0.04900
C5355       C  0.64545068  0.90000836  0.92034119    -0.07400
C5356       C  0.64740481  0.92314682  0.90348256    -0.08200
C5357       C  0.67363710  0.95152151  0.90277647    -0.02700
C5358       C  0.69910858  0.95580326  0.91804418     0.04100
N5359       N  0.72657869  0.98389777  0.91818256     0.66600
H5360       H  0.71664953  0.93713582  0.94738487     0.15500
H5361       H  0.62788417  0.91898168  0.89117934     0.15200
N5362       N  0.61844008  0.87154477  0.91947061     0.74300
O5363       O  0.72875117  0.00419952  0.93426813    -0.39100
O5364       O  0.75051740  0.98490624  0.90908363    -0.39100
O5365       O  0.59484927  0.86806204  0.93176473    -0.39800
O5366       O  0.61613466  0.85304922  0.90123938    -0.39800
C5367       C  0.75054972  0.85216155  0.91736367    -0.12100
C5368       C  0.73596874  0.82621895  0.93395405     0.04900
C5369       C  0.74098621  0.80180640  0.92800428    -0.07400
C5370       C  0.76220550  0.80497210  0.90769478    -0.08200
C5371       C  0.77869331  0.83201301  0.89299076    -0.02700
C5372       C  0.77153451  0.85520276  0.89705564     0.04100
N5373       N  0.78482505  0.88180456  0.88044834     0.66600
H5374       H  0.74605536  0.87067785  0.92035277     0.15500
H5375       H  0.76693967  0.78663763  0.90450188     0.15200
N5376       N  0.72604664  0.77419174  0.94307029     0.74300
O5377       O  0.77236950  0.88180942  0.85801792    -0.39100
O5378       O  0.80282257  0.90659595  0.89132877    -0.39100
O5379       O  0.70511933  0.75126701  0.93167057    -0.39800
O5380       O  0.73869702  0.77087412  0.96408983    -0.39800
C5381       C  0.65820654  0.90541898  0.58358753    -0.12100
C5382       C  0.67662858  0.91433266  0.56000365     0.04900
C5383       C  0.69509370  0.94539675  0.55450012    -0.07400
C5384       C  0.69494829  0.96672958  0.57268095    -0.08200
C5385       C  0.67603278  0.95773094  0.59600402    -0.02700
C5386       C  0.65755884  0.92668195  0.60136371     0.04100
N5387       N  0.63738546  0.91629001  0.62447229     0.66600
H5388       H  0.64358071  0.88172718  0.58787878     0.15500
H5389       H  0.70815868  0.99037989  0.56756101     0.15200
N5390       N  0.71112172  0.95557001  0.52896755     0.74300
O5391       O  0.60974262  0.90862263  0.62115256    -0.39100
O5392       O  0.64534445  0.90821044  0.64600494    -0.39100
O5393       O  0.70004185  0.96406924  0.50997196    -0.39800
O5394       O  0.73826188  0.96091576  0.52708621    -0.39800
C5395       C  0.77283977  0.84249759  0.54592741    -0.12100
C5396       C  0.74295357  0.82785231  0.55571788     0.04900
C5397       C  0.73603514  0.81067814  0.58010575    -0.07400
C5398       C  0.75952962  0.81004904  0.59495770    -0.08200
C5399       C  0.78967638  0.82510331  0.58522248    -0.02700
C5400       C  0.79596639  0.84053373  0.55978940     0.04100
N5401       N  0.82503336  0.85255013  0.54662771     0.66600
H5402       H  0.77796695  0.85422610  0.52634920     0.15500
H5403       H  0.75425529  0.79839625  0.61449182     0.15200
N5404       N  0.70563525  0.79461265  0.59050018     0.74300
O5405       O  0.83554781  0.83519376  0.54122842    -0.39100
O5406       O  0.83566227  0.87732395  0.53397813    -0.39100
O5407       O  0.69069218  0.76647215  0.58769115    -0.39800
O5408       O  0.69657507  0.80716420  0.60753062    -0.39800
loop_ 
_geom_bond_atom_site_label_1 
_geom_bond_atom_site_label_2 
_geom_bond_distance 
_geom_bond_site_symmetry_2 
_ccdc_geom_bond_type 
Fe1          O17   2.061   1_556  S
Fe1           O7   2.054   1_556  S
Fe1         O690   2.059       .  S
Fe1         O682   2.052       .  S
Fe1         O688   1.947       .  S
Fe2          O13   2.073       .  S
Fe2          O18   2.067       .  S
Fe2         O681   2.080       .  S
Fe2         O685   2.079       .  S
Fe2          O12   1.962       .  S
Fe3           O8   2.063       .  S
Fe3           O4   2.076       .  S
Fe3         O697   2.051       .  S
Fe3         O691   2.074       .  S
Fe3          O12   1.968       .  S
O4           C11   1.268       .  A
O5         Fe678   2.079   1_554  S
O5           C19   1.273       .  A
O6         Fe677   2.056       .  S
O6           C11   1.269       .  A
O7           C10   1.269       .  A
O8           C20   1.269       .  A
O9         Fe678   2.082   1_554  S
O9           C22   1.273       .  A
C10          O15   1.268       .  A
C10         C664   1.481       .  S
C11         C636   1.489       .  S
O12        Fe677   1.950       .  S
O13          C16   1.271       .  A
O14        Fe677   2.060       .  S
O14          C16   1.269       .  A
O15        Fe679   2.074   1_554  S
C16         C622   1.485       .  S
O17          C22   1.270       .  A
O18          C20   1.271       .  A
C19          O21   1.272       .  A
C19         C608   1.485       .  S
C20         C594   1.486       .  S
O21        Fe679   2.065   1_554  S
C22         C650   1.486       .  S
Fe23         O39   2.068       .  S
Fe23         O29   2.087       .  S
Fe23        O712   2.075       .  S
Fe23        O704   2.062       .  S
Fe23        O710   1.961       .  S
Fe24         O35   2.071       .  S
Fe24         O40   2.052       .  S
Fe24        O703   2.076   1_554  S
Fe24        O707   2.061   1_554  S
Fe24         O34   1.956       .  S
Fe25         O30   2.087       .  S
Fe25         O26   2.052       .  S
Fe25        O719   2.058   1_554  S
Fe25        O713   2.076   1_554  S
Fe25         O34   1.953       .  S
O26          C33   1.266       .  A
O27        Fe700   2.069       .  S
O27          C41   1.270       .  A
O28        Fe699   2.098       .  S
O28          C33   1.275       .  A
O29          C32   1.273       .  A
O30          C42   1.275       .  A
O31        Fe700   2.063       .  S
O31          C44   1.271       .  A
C32          O37   1.271       .  A
C32         C552   1.488       .  S
C33         C583   1.497       .  S
O34        Fe699   1.962       .  S
O35          C38   1.271       .  A
O36        Fe699   2.061       .  S
O36          C38   1.269       .  A
O37        Fe701   2.058       .  S
C38         C524   1.486       .  S
O39          C44   1.270       .  A
O40          C42   1.268       .  A
C41          O43   1.269       .  A
C41         C538   1.477       .  S
C42         C566   1.491       .  S
O43        Fe701   2.066       .  S
C44         C510   1.477       .  S
C45         C499   1.493       .  S
C45          C50   1.420       .  A
C45        C1398   1.421       .  A
C46         C440   1.483       .  S
C46        C1397   1.415   1_545  A
C46        C2751   1.414       .  A
C47         C426   1.492       .  S
C47        C2750   1.413       .  A
C47        C1400   1.414   1_545  A
C48         C454   1.487       .  S
C48        C1399   1.419       .  A
C48        C2753   1.423   1_455  A
C49         C468   1.488       .  S
C49          C50   1.416       .  A
C49        C2752   1.413       .  A
C50         C482   1.493       .  S
C51         C415   1.476       .  S
C51          N52   1.354       .  A
C51          N56   1.366       .  A
N52          C53   1.350       .  A
C53         C496   1.460       .  S
C53        N1406   1.351       .  A
N54          C55   1.360       .  A
N54        C1405   1.352   1_545  A
C55         C527   1.492       .  S
C55        N1408   1.367   1_545  A
N56        C1407   1.365       .  A
C57         C398   1.472       .  S
C57          N58   1.357       .  A
C57        N1414   1.365   1_545  A
N58        C1411   1.354   1_545  A
C59         C457   1.479       .  S
C59          N60   1.350       .  A
C59        N1410   1.354       .  A
N60          C61   1.353       .  A
C61         C653   1.491       .  S
C61          N62   1.366       .  A
N62        C1409   1.371       .  A
C63         C569   1.487       .  S
C63          N64   1.362       .  A
C63          N68   1.358       .  A
N64          C65   1.362       .  A
C65         C387   1.467       .  S
C65          N66   1.358       .  A
N66          C67   1.354       .  A
C67         C429   1.475       .  S
C67          N68   1.353       .  A
C69         C373   1.485       .  S
C69          N70   1.365       .  A
C69          N74   1.356       .  A
N70        C2775   1.366       .  A
C71         C611   1.489       .  S
C71          N72   1.361       .  A
C71        N2774   1.365       .  A
N72        C2777   1.357       .  A
C73         C443   1.467       .  S
C73          N74   1.352       .  A
C73        N2776   1.353       .  A
C75         C667   1.485       .  S
C75          N76   1.362       .  A
C75          N80   1.362       .  A
N76          C77   1.359       .  A
C77         C359   1.475       .  S
C77          N78   1.356       .  A
N78          C79   1.358       .  A
C79         C485   1.480       .  S
C79          N80   1.359       .  A
C81         C345   1.476       .  S
C81          N82   1.358       .  A
C81        N2790   1.360       .  A
N82        C2787   1.356       .  A
C83         C471   1.469       .  S
C83          N84   1.349       .  A
C83        N2786   1.349       .  A
N84          C85   1.358       .  A
C85         C580   1.503       .  S
C85          N86   1.370       .  A
N86        C2785   1.372       .  A
Fe87        O103   2.060       .  S
Fe87         O93   2.062       .  S
Fe87        O100   2.060       .  S
Fe87         O92   2.059       .  S
Fe87         O98   1.981       .  S
Fe88         O91   2.088       .  S
Fe88         O95   2.087       .  S
Fe88         O99   2.088       .  S
Fe88        O104   2.083       .  S
Fe88         O98   1.982       .  S
Fe89        O107   2.070       .  S
Fe89         O94   2.059       .  S
Fe89        O101   2.071       .  S
Fe89         O90   2.069       .  S
Fe89         O98   1.984       .  S
O90          C97   1.270       .  A
O91         C105   1.274       .  A
O92          C97   1.267       .  A
O93          C96   1.270       .  A
O94         C106   1.270       .  A
O95         C108   1.274       .  A
C96         O101   1.268       .  A
C96         C370   1.489       .  S
C97         C303   1.481       .  S
O99         C102   1.274       .  A
O100        C102   1.265       .  A
C102        C314   1.495       .  S
O103        C108   1.269       .  A
O104        C106   1.272       .  A
C105        O107   1.269       .  A
C105        C356   1.490       .  S
C106        C331   1.489       .  S
C108        C401   1.473       .  S
Fe109       O125   2.052       .  S
Fe109       O115   2.057       .  S
Fe109       O122   2.052       .  S
Fe109       O114   2.067       .  S
Fe109       O120   1.955       .  S
Fe110       O113   2.076       .  S
Fe110       O117   2.081       .  S
Fe110       O121   2.085       .  S
Fe110       O126   2.074       .  S
Fe110       O120   1.963       .  S
Fe111       O129   2.082       .  S
Fe111       O116   2.061       .  S
Fe111       O123   2.068       .  S
Fe111       O112   2.065       .  S
Fe111       O120   1.954       .  S
O112        C119   1.271       .  A
O113        C127   1.276       .  A
O114        C119   1.266       .  A
O115        C118   1.268       .  A
O116        C128   1.271       .  A
O117        C130   1.270       .  A
C118        O123   1.271       .  A
C118        C272   1.475       .  S
C119        C342   1.489       .  S
O121        C124   1.274       .  A
O122        C124   1.267       .  A
C124        C384   1.479       .  S
O125        C130   1.270       .  A
O126        C128   1.271       .  A
C127        O129   1.271       .  A
C127        C289   1.494       .  S
C128        C412   1.488       .  S
C130        C258   1.494       .  S
C131        C233   1.491   1_545  S
C131        C136   1.419       .  A
C131       C1484   1.420   1_445  A
C132        C244   1.499       .  S
C132       C1483   1.422       .  A
C132       C2837   1.418   1_455  A
C133        C205   1.500       .  S
C133       C2836   1.422       .  A
C133       C1486   1.426       .  A
C134        C216   1.493       .  S
C134       C1485   1.422   1_545  A
C134       C2839   1.419       .  A
C135        C174   1.493       .  S
C135        C136   1.418   1_655  A
C135       C2838   1.419       .  A
C136        C188   1.497       .  S
C137        C317   1.493       .  S
C137        N138   1.351       .  A
C137        N142   1.371       .  A
N138        C139   1.351       .  A
C139        C230   1.465       .  S
C139       N1492   1.352   1_545  A
N140        C141   1.358       .  A
N140       C1491   1.354       .  A
C141        C625   1.476       .  S
C141       N1494   1.362       .  A
N142       C1493   1.370   1_545  A
C143        C286   1.498       .  S
C143        N148   1.356       .  A
C143       N1496   1.372       .  A
N144        C145   1.369       .  A
N144       C1495   1.368   1_545  A
C145        C513   1.486       .  S
C145        N146   1.358       .  A
N146        C147   1.349   1_545  A
C147        C219   1.476   1_565  S
C147       N1500   1.353       .  A
N148       C1499   1.349       .  A
C149        C300   1.477       .  S
C149        N150   1.357       .  A
C149        N154   1.361       .  A
N150        C151   1.355       .  A
C151        C177   1.482       .  S
C151       N2856   1.354       .  A
N152        C153   1.358       .  A
N152       C2855   1.353   1_455  A
C153        C597   1.473       .  S
C153       N2858   1.363   1_455  A
N154       C2857   1.364       .  A
C155        C541   1.480       .  S
C155        N156   1.367       .  A
C155        N160   1.362       .  A
N156        C157   1.365       .  A
C157        C261   1.495       .  S
C157        N158   1.352       .  A
N158        C159   1.350       .  A
C159        C191   1.483       .  S
C159        N160   1.355       .  A
C161        C275   1.478       .  S
C161        N162   1.356       .  A
C161        N166   1.359       .  A
N162        C163   1.350       .  A
C163        C247   1.489       .  S
C163       N2868   1.358   1_455  A
N164        C165   1.361       .  A
N164       C2867   1.355       .  A
C165        C555   1.487       .  S
C165       N2870   1.367       .  A
N166       C2869   1.364   1_455  A
C167        C639   1.480       .  S
C167        N168   1.361       .  A
C167        N172   1.360       .  A
N168        C169   1.360       .  A
C169        C328   1.483       .  S
C169        N170   1.358       .  A
N170        C171   1.360       .  A
C171        C202   1.485       .  S
C171        N172   1.357       .  A
C173        C178   1.394       .  A
C173       C2878   1.400       .  A
C173        H180   1.079       .  S
C174        C175   1.419   1_655  A
C174       C2877   1.399       .  A
C175        C176   1.409       .  A
C175        N182   1.441       .  S
C176       C2881   1.404   1_455  A
C176        H181   1.084       .  S
C177        C178   1.408       .  A
C177       C2880   1.406       .  A
C178        N179   1.430       .  S
N179        O183   1.262       .  A
N179        O184   1.262       .  A
N182        O186   1.262   1_455  A
N182        O185   1.263       .  A
C187        C188   1.409       .  A
C187        C192   1.403       .  A
C187        H194   1.082       .  S
C188        C189   1.414       .  A
C189        C190   1.397       .  A
C189        N196   1.433       .  S
C190        C191   1.403       .  A
C190        H195   1.079       .  S
C191        C192   1.408       .  A
C192        N193   1.429       .  S
N193        O197   1.262       .  A
N193        O198   1.262       .  A
N196        O200   1.260       .  A
N196        O199   1.262       .  A
C201        C202   1.403       .  A
C201        C206   1.401       .  A
C201        H208   1.083       .  S
C202        C203   1.412       .  A
C203        C204   1.400       .  A
C203        N210   1.429       .  S
C204        C205   1.404       .  A
C204        H209   1.081       .  S
C205        C206   1.419       .  A
C206        N207   1.432       .  S
N207        O211   1.261       .  A
N207        O212   1.260       .  A
N210        O214   1.261       .  A
N210        O213   1.262       .  A
C215        C220   1.402       .  A
C215       C1568   1.406       .  A
C215        H222   1.080       .  S
C216        C217   1.410   1_545  A
C216       C1567   1.405       .  A
C217        C218   1.395       .  A
C217        N224   1.428       .  S
C218        C219   1.400   1_565  A
C218        H223   1.083       .  S
C219       C1572   1.411       .  A
C220       C1571   1.411       .  A
C220        N221   1.429       .  S
N221        O225   1.262       .  A
N221        O226   1.262       .  A
N224        O228   1.261       .  A
N224        O227   1.261   1_565  A
C229        C230   1.396       .  A
C229        C234   1.392       .  A
C229        H236   1.084       .  S
C230       C1583   1.405   1_545  A
C231        C232   1.397       .  A
C231       C1582   1.405       .  A
C231        N238   1.429       .  S
C232       C1585   1.406       .  A
C232        H237   1.080       .  S
C233        C234   1.415   1_565  A
C233       C1584   1.408       .  A
C234        N235   1.430       .  S
N235        O239   1.261   1_545  A
N235        O240   1.261       .  A
N238        O242   1.262       .  A
N238        O241   1.262       .  A
C243        C244   1.399       .  A
C243        C248   1.394       .  A
C243        H250   1.062       .  S
C244       C2949   1.415   1_455  A
C245        C246   1.404       .  A
C245       C2948   1.413       .  A
C245        N252   1.430       .  S
C246       C2951   1.405       .  A
C246        H251   1.072       .  S
C247        C248   1.416       .  A
C247       C2950   1.406   1_455  A
C248        N249   1.429       .  S
N249        O253   1.262       .  A
N249        O254   1.262       .  A
N252        O256   1.261       .  A
N252        O255   1.261       .  A
C257        C258   1.402       .  A
C257        C262   1.387       .  A
C257        H264   1.083       .  S
C258        C259   1.416       .  A
C259        C260   1.411       .  A
C259        N266   1.427       .  S
C260        C261   1.410       .  A
C260        H265   1.083       .  S
C261        C262   1.420       .  A
C262        N263   1.430       .  S
N263        O267   1.262       .  A
N263        O268   1.262       .  A
N266        O270   1.262       .  A
N266        O269   1.261       .  A
C271        C272   1.408       .  A
C271        C276   1.407       .  A
C271        H278   1.083       .  S
C272        C273   1.409       .  A
C273        C274   1.388       .  A
C273        N280   1.430       .  S
C274        C275   1.402       .  A
C274        H279   1.080       .  S
C275        C276   1.413       .  A
C276        N277   1.430       .  S
N277        O281   1.260       .  A
N277        O282   1.260       .  A
N280        O284   1.262       .  A
N280        O283   1.262       .  A
C285        C286   1.409       .  A
C285        C290   1.416       .  A
C285        H292   1.083       .  S
C286        C287   1.420       .  A
C287        C288   1.391       .  A
C287        N294   1.430       .  S
C288        C289   1.400       .  A
C288        H293   1.084       .  S
C289        C290   1.418       .  A
C290        N291   1.428       .  S
N291        O295   1.262       .  A
N291        O296   1.262       .  A
N294        O298   1.262       .  A
N294        O297   1.262       .  A
C299        C300   1.402       .  A
C299        C304   1.399       .  A
C299        H306   1.084       .  S
C300        C301   1.412       .  A
C301        C302   1.401       .  A
C301        N308   1.427       .  S
C302        C303   1.403       .  A
C302        H307   1.084       .  S
C303        C304   1.412       .  A
C304        N305   1.428       .  S
N305        O309   1.262       .  A
N305        O310   1.262       .  A
N308        O312   1.261       .  A
N308        O311   1.262       .  A
C313        C314   1.403       .  A
C313        C318   1.401       .  A
C313        H320   1.084       .  S
C314        C315   1.420       .  A
C315        C316   1.406       .  A
C315        N322   1.430       .  S
C316        C317   1.402       .  A
C316        H321   1.083       .  S
C317        C318   1.420       .  A
C318        N319   1.431       .  S
N319        O323   1.262       .  A
N319        O324   1.262       .  A
N322        O326   1.262       .  A
N322        O325   1.262       .  A
C327        C328   1.405       .  A
C327        C332   1.404       .  A
C327        H334   1.083       .  S
C328        C329   1.411       .  A
C329        C330   1.399       .  A
C329        N336   1.430       .  S
C330        C331   1.407       .  A
C330        H335   1.084       .  S
C331        C332   1.415       .  A
C332        N333   1.429       .  S
N333        O337   1.262       .  A
N333        O338   1.262       .  A
N336        O340   1.262       .  A
N336        O339   1.262       .  A
C341        C342   1.406       .  A
C341        C346   1.396       .  A
C341        H348   1.083       .  S
C342        C343   1.420       .  A
C343        C344   1.401       .  A
C343        N350   1.429       .  S
C344        C345   1.401       .  A
C344        H349   1.084       .  S
C345        C346   1.409       .  A
C346        N347   1.429       .  S
N347        O351   1.261       .  A
N347        O352   1.262       .  A
N350        O354   1.262       .  A
N350        O353   1.262       .  A
C355        C356   1.408       .  A
C355        C360   1.405       .  A
C355        H362   1.081       .  S
C356        C357   1.415       .  A
C357        C358   1.403       .  A
C357        N364   1.428       .  S
C358        C359   1.401       .  A
C358        H363   1.084       .  S
C359        C360   1.406       .  A
C360        N361   1.430       .  S
N361        O365   1.262       .  A
N361        O366   1.262       .  A
N364        O368   1.262       .  A
N364        O367   1.262       .  A
C369        C370   1.403       .  A
C369        C374   1.395       .  A
C369        H376   1.084       .  S
C370        C371   1.417       .  A
C371        C372   1.405       .  A
C371        N378   1.428       .  S
C372        C373   1.404       .  A
C372        H377   1.084       .  S
C373        C374   1.415       .  A
C374        N375   1.429       .  S
N375        O379   1.262       .  A
N375        O380   1.260       .  A
N378        O382   1.262       .  A
N378        O381   1.262       .  A
C383        C384   1.406       .  A
C383        C388   1.400       .  A
C383        H390   1.084       .  S
C384        C385   1.415       .  A
C385        C386   1.399       .  A
C385        N392   1.429       .  S
C386        C387   1.399       .  A
C386        H391   1.084       .  S
C387        C388   1.405       .  A
C388        N389   1.427       .  S
N389        O393   1.259       .  A
N389        O394   1.262       .  A
N392        O396   1.262       .  A
N392        O395   1.261       .  A
C397        C398   1.405       .  A
C397        C402   1.406       .  A
C397        H404   1.081       .  S
C398        C399   1.406       .  A
C399        C400   1.398       .  A
C399        N406   1.429       .  S
C400        C401   1.403       .  A
C400        H405   1.083       .  S
C401        C402   1.408       .  A
C402        N403   1.428       .  S
N403        O407   1.262       .  A
N403        O408   1.262       .  A
N406        O410   1.262       .  A
N406        O409   1.262   1_545  A
C411        C412   1.408       .  A
C411        C416   1.394       .  A
C411        H418   1.083       .  S
C412        C413   1.415       .  A
C413        C414   1.402       .  A
C413        N420   1.429       .  S
C414        C415   1.404       .  A
C414        H419   1.084       .  S
C415        C416   1.402       .  A
C416        N417   1.423       .  S
N417        O421   1.257       .  A
N417       O1774   1.262       .  A
N420        O424   1.262       .  A
N420        O423   1.262       .  A
O422       N1769   1.262   1_545  A
C425        C426   1.397       .  A
C425        C430   1.394       .  A
C425        H432   1.059       .  S
C426        C427   1.416       .  A
C427        C428   1.403       .  A
C427        N434   1.431       .  S
C428        C429   1.403       .  A
C428        H433   1.081       .  S
C429        C430   1.408       .  A
C430        N431   1.429       .  S
N431        O435   1.262       .  A
N431        O436   1.262       .  A
N434        O438   1.260       .  A
N434        O437   1.261       .  A
C439        C444   1.399       .  A
C439       C3144   1.399       .  A
C439        H446   1.080   1_455  S
C440        C441   1.415       .  A
C440       C3143   1.396       .  A
C441        C442   1.399       .  A
C441        N448   1.432       .  S
C442        C443   1.401       .  A
C442        H447   1.084       .  S
C443       C3148   1.407       .  A
C444       C3147   1.411       .  A
C444        N445   1.430       .  S
N445        O449   1.261   1_455  A
N445        O450   1.262       .  A
N448        O452   1.261       .  A
N448        O451   1.261       .  A
C453        C458   1.397       .  A
C453       C1806   1.401   1_545  A
C453        H460   1.074       .  S
C454        C455   1.410       .  A
C454       C1805   1.399       .  A
C455        C456   1.397       .  A
C455        N462   1.430       .  S
C456        C457   1.406       .  A
C456        H461   1.083       .  S
C457       C1810   1.409       .  A
C458       C1809   1.408   1_545  A
C458        N459   1.428       .  S
N459        O463   1.262       .  A
N459        O464   1.262   1_545  A
N462        O466   1.261       .  A
N462        O465   1.262       .  A
C467        C468   1.397       .  A
C467        C472   1.395       .  A
C467        H474   1.082       .  S
C468       C3173   1.417       .  A
C469        C470   1.405       .  A
C469       C3172   1.418       .  A
C469        N476   1.431       .  S
C470       C3175   1.405       .  A
C470        H475   1.083       .  S
C471        C472   1.408       .  A
C471       C3174   1.400       .  A
C472        N473   1.429       .  S
N473        O477   1.261       .  A
N473        O478   1.262       .  A
N476        O480   1.262       .  A
N476        O479   1.261       .  A
C481        C482   1.397       .  A
C481        C486   1.397       .  A
C481        H488   1.081       .  S
C482        C483   1.414       .  A
C483        C484   1.401       .  A
C483        N490   1.428       .  S
C484        C485   1.403       .  A
C484        H489   1.084       .  S
C485        C486   1.411       .  A
C486        N487   1.427       .  S
N487        O491   1.262       .  A
N487        O492   1.262       .  A
N490        O494   1.261       .  A
N490        O493   1.260       .  A
C495        C500   1.397       .  A
C495       C1848   1.399       .  A
C495        H502   1.084       .  S
C496        C497   1.402       .  A
C496       C1847   1.396       .  A
C497        C498   1.398       .  A
C497        N504   1.430       .  S
C498        C499   1.407       .  A
C498        H503   1.080       .  S
C499       C1852   1.415       .  A
C500       C1851   1.413       .  A
C500        N501   1.428       .  S
N501        O505   1.261   1_565  A
N501        O506   1.262       .  A
N504        O508   1.262       .  A
N504        O507   1.262       .  A
C509        C510   1.401       .  A
C509        C514   1.403       .  A
C509        H516   1.084       .  S
C510        C511   1.412       .  A
C511        C512   1.394       .  A
C511        N518   1.430       .  S
C512        C513   1.404       .  A
C512        H517   1.083       .  S
C513        C514   1.411       .  A
C514        N515   1.421       .  S
N515        O519   1.259       .  A
N515        O520   1.261       .  A
N518        O522   1.262       .  A
N518        O521   1.262       .  A
C523        C524   1.407       .  A
C523        C528   1.402       .  A
C523        H530   1.084       .  S
C524        C525   1.411       .  A
C525        C526   1.397       .  A
C525        N532   1.429       .  S
C526        C527   1.408       .  A
C526        H531   1.083       .  S
C527        C528   1.413       .  A
C528        N529   1.426       .  S
N529        O533   1.261       .  A
N529        O534   1.262       .  A
N532        O536   1.262       .  A
N532        O535   1.262       .  A
C537        C538   1.402       .  A
C537        C542   1.404       .  A
C537        H544   1.084       .  S
C538        C539   1.411       .  A
C539        C540   1.398       .  A
C539        N546   1.431       .  S
C540        C541   1.403       .  A
C540        H545   1.084       .  S
C541        C542   1.412       .  A
C542        N543   1.426       .  S
N543        O547   1.261       .  A
N543        O548   1.262       .  A
N546        O550   1.262       .  A
N546       O1225   1.262       .  A
O549       N1222   1.262   1_554  A
C551        C552   1.404       .  A
C551        C556   1.392       .  A
C551        H558   1.084       .  S
C552        C553   1.413       .  A
C553        C554   1.409       .  A
C553        N560   1.428       .  S
C554        C555   1.408       .  A
C554        H559   1.083       .  S
C555        C556   1.413       .  A
C556        N557   1.430       .  S
N557        O561   1.262       .  A
N557       O3266   1.262       .  A
N560        O564   1.261       .  A
N560        O563   1.261       .  A
O562       N3261   1.262       .  A
C565        C566   1.409       .  A
C565        C570   1.404       .  A
C565        H572   1.083       .  S
C566        C567   1.416       .  A
C567        C568   1.395       .  A
C567        N574   1.429       .  S
C568        C569   1.404       .  A
C568        H573   1.084       .  S
C569        C570   1.413       .  A
C570        N571   1.428       .  S
N571        O575   1.261       .  A
N571        O576   1.262       .  A
N574        O578   1.261       .  A
N574        O577   1.262       .  A
C579        C580   1.408       .  A
C579        C584   1.396       .  A
C579        H586   1.083       .  S
C580        C581   1.414       .  A
C581        C582   1.410       .  A
C581        N588   1.423       .  S
C582        C583   1.408       .  A
C582        H587   1.083       .  S
C583        C584   1.416       .  A
C584        N585   1.430       .  S
N585        O589   1.262       .  A
N585        O590   1.262       .  A
N588        O592   1.259       .  A
N588       O3295   1.261       .  A
O591       N3292   1.261       .  A
C593        C594   1.409       .  A
C593        C598   1.398       .  A
C593        H600   1.083       .  S
C594        C595   1.415       .  A
C595        C596   1.398       .  A
C595        N602   1.429       .  S
C596        C597   1.403       .  A
C596        H601   1.084       .  S
C597        C598   1.406       .  A
C598        N599   1.428       .  S
N599        O603   1.262   1_455  A
N599       O3308   1.261   1_455  A
N602        O606   1.262       .  A
N602        O605   1.262       .  A
O604       N3303   1.260       .  A
C607        C608   1.402       .  A
C607        C612   1.395       .  A
C607        H614   1.084       .  S
C608        C609   1.413       .  A
C609        C610   1.411       .  A
C609        N616   1.430       .  S
C610        C611   1.410       .  A
C610        H615   1.084       .  S
C611        C612   1.413       .  A
C612        N613   1.430       .  S
N613        O617   1.262       .  A
N613        O618   1.262       .  A
N616        O620   1.262       .  A
N616        O619   1.262       .  A
C621        C622   1.406       .  A
C621        C626   1.398       .  A
C621        H628   1.083       .  S
C622        C623   1.411       .  A
C623        C624   1.399       .  A
C623        N630   1.426       .  S
C624        C625   1.403       .  A
C624        H629   1.084       .  S
C625        C626   1.409       .  A
C626        N627   1.427       .  S
N627        O631   1.262       .  A
N627        O632   1.262       .  A
N630        O634   1.262       .  A
N630        O633   1.262       .  A
C635        C636   1.406       .  A
C635        C640   1.396       .  A
C635        H642   1.083       .  S
C636        C637   1.418       .  A
C637        C638   1.403       .  A
C637        N644   1.429       .  S
C638        C639   1.404       .  A
C638        H643   1.084       .  S
C639        C640   1.410       .  A
C640        N641   1.430       .  S
N641        O645   1.262       .  A
N641        O646   1.261       .  A
N644        O648   1.262       .  A
N644        O647   1.262       .  A
C649        C650   1.405       .  A
C649        C654   1.406       .  A
C649        H656   1.084       .  S
C650        C651   1.411       .  A
C651        C652   1.396       .  A
C651        N658   1.430       .  S
C652        C653   1.408       .  A
C652        H657   1.084       .  S
C653        C654   1.412       .  A
C654        N655   1.425       .  S
N655        O659   1.262       .  A
N655        O660   1.261       .  A
N658        O662   1.262       .  A
N658        O661   1.262       .  A
C663        C664   1.400       .  A
C663        C668   1.391       .  A
C663        H670   1.084       .  S
C664        C665   1.411       .  A
C665        C666   1.408       .  A
C665        N672   1.427       .  S
C666        C667   1.409       .  A
C666        H671   1.083       .  S
C667        C668   1.412       .  A
C668        N669   1.428       .  S
N669        O673   1.262       .  A
N669        O674   1.262       .  A
N672        O676   1.261       .  A
N672        O675   1.262       .  A
Fe677       O693   2.067       .  S
Fe677       O683   2.052       .  S
Fe678       O689   2.082       .  S
Fe678       O694   2.065       .  S
Fe678       O688   1.961       .  S
Fe679       O684   2.055       .  S
Fe679       O680   2.079       .  S
Fe679       O688   1.969       .  S
O680        C687   1.271       .  A
O681        C695   1.273       .  A
O682        C687   1.270       .  A
O683        C686   1.270       .  A
O684        C696   1.267       .  A
O685        C698   1.272       .  A
C686        O691   1.269       .  A
C686       C1340   1.477       .  S
C687       C1312   1.489       .  S
O689        C692   1.271       .  A
O690        C692   1.268       .  A
C692       C1298   1.492       .  S
O693        C698   1.268       .  A
O694        C696   1.271       .  A
C695        O697   1.269       .  A
C695       C1284   1.481       .  S
C696       C1270   1.481       .  S
C698       C1326   1.486       .  S
Fe699       O715   2.085   1_554  S
Fe699       O705   2.072   1_554  S
Fe700       O711   2.054       .  S
Fe700       O716   2.056       .  S
Fe700       O710   1.954       .  S
Fe701       O706   2.066       .  S
Fe701       O702   2.059       .  S
Fe701       O710   1.953       .  S
O702        C709   1.268       .  A
O703        C717   1.271       .  A
O704        C709   1.269       .  A
O705        C708   1.270       .  A
O706        C718   1.270       .  A
O707        C720   1.270       .  A
C708        O713   1.275       .  A
C708       C1228   1.489       .  S
C709       C1259   1.485       .  S
O711        C714   1.268       .  A
O712        C714   1.271       .  A
C714       C1200   1.488       .  S
O715        C720   1.274       .  A
O716        C718   1.267       .  A
C717        O719   1.265       .  A
C717       C1214   1.479       .  S
C718       C1242   1.481       .  S
C720       C1186   1.485       .  S
C721       C1175   1.496       .  S
C721       C2074   1.415       .  A
C721        C726   1.425       .  A
C722       C1116   1.484       .  S
C722       C2073   1.417       .  A
C722       C3427   1.412       .  A
C723       C1102   1.495       .  S
C723       C3426   1.410       .  A
C723       C2076   1.416   1_545  A
C724       C1130   1.489       .  S
C724       C2075   1.412       .  A
C724       C3429   1.419       .  A
C725       C1144   1.487       .  S
C725       C3428   1.417       .  A
C725        C726   1.421       .  A
C726       C1158   1.492       .  S
C727       C1091   1.477       .  S
C727        N728   1.353       .  A
C727        N732   1.366       .  A
N728        C729   1.352       .  A
C729       C1172   1.472       .  S
C729       N2082   1.355       .  A
N730       C2081   1.349       .  A
N730        C731   1.355       .  A
C731       C1203   1.482       .  S
C731       N2084   1.366       .  A
N732       C2083   1.367       .  A
C733       C1074   1.486       .  S
C733        N734   1.362       .  A
C733       N2090   1.369       .  A
N734       C2087   1.355       .  A
C735       C1133   1.475       .  S
C735       N2086   1.350       .  A
C735        N736   1.349       .  A
N736        C737   1.357       .  A
C737       C1329   1.489       .  S
C737        N738   1.369       .  A
N738       C2085   1.371       .  A
C739       C1245   1.466       .  S
C739        N740   1.359       .  A
C739        N744   1.355       .  A
N740        C741   1.360       .  A
C741       C1063   1.472       .  S
C741        N742   1.360       .  A
N742        C743   1.356       .  A
C743       C1105   1.475       .  S
C743        N744   1.352       .  A
C745       C1049   1.490       .  S
C745        N746   1.369       .  A
C745        N750   1.357       .  A
N746       C3451   1.368       .  A
C747       C1287   1.485       .  S
C747       N3450   1.361   1_455  A
C747        N748   1.357       .  A
N748       C3453   1.354       .  A
C749       C1119   1.473       .  S
C749       N3452   1.352       .  A
C749        N750   1.349       .  A
C751       C1343   1.488       .  S
C751        N752   1.362       .  A
C751        N756   1.363       .  A
N752        C753   1.360       .  A
C753       C1035   1.483       .  S
C753        N754   1.357       .  A
N754        C755   1.357       .  A
C755       C1161   1.494       .  S
C755        N756   1.360       .  A
C757       C1021   1.473       .  S
C757        N758   1.358       .  A
C757       N3466   1.364       .  A
N758       C3463   1.353       .  A
C759       C1147   1.474       .  S
C759       N3462   1.352       .  A
C759        N760   1.352       .  A
N760        C761   1.356       .  A
C761       C1256   1.483       .  S
C761        N762   1.360       .  A
N762       C3461   1.363       .  A
Fe763       O779   2.067       .  S
Fe763       O769   2.060       .  S
Fe763       O776   2.074       .  S
Fe763       O768   2.060       .  S
Fe763       O774   1.964       .  S
Fe764       O767   2.080       .  S
Fe764       O771   2.074       .  S
Fe764       O775   2.078       .  S
Fe764       O780   2.086       .  S
Fe764       O774   1.952       .  S
Fe765       O783   2.070       .  S
Fe765       O770   2.061       .  S
Fe765       O777   2.081       .  S
Fe765       O766   2.071       .  S
Fe765       O774   1.958       .  S
O766        C773   1.272       .  A
O767        C781   1.273       .  A
O768        C773   1.268       .  A
O769        C772   1.270       .  A
O770        C782   1.271       .  A
O771        C784   1.274       .  A
C772        O777   1.270       .  A
C772       C1046   1.493       .  S
C773        C979   1.483       .  S
O775        C778   1.275       .  A
O776        C778   1.268       .  A
C778        C990   1.496       .  S
O779        C784   1.268       .  A
O780        C782   1.272       .  A
C781        O783   1.271       .  A
C781       C1032   1.484       .  S
C782       C1007   1.494       .  S
C784       C1077   1.476       .  S
Fe785       O801   2.061       .  S
Fe785       O791   2.057       .  S
Fe785       O798   2.055       .  S
Fe785       O790   2.069       .  S
Fe785       O796   1.963       .  S
Fe786       O789   2.063       .  S
Fe786       O793   2.079       .  S
Fe786       O797   2.063       .  S
Fe786       O802   2.076       .  S
Fe786       O796   1.961       .  S
Fe787       O805   2.082       .  S
Fe787       O792   2.066       .  S
Fe787       O799   2.075       .  S
Fe787       O788   2.064       .  S
Fe787       O796   1.961       .  S
O788        C795   1.272       .  A
O789        C803   1.273       .  A
O790        C795   1.268       .  A
O791        C794   1.267       .  A
O792        C804   1.269       .  A
O793        C806   1.269       .  A
C794        O799   1.270       .  A
C794        C948   1.482       .  S
C795       C1018   1.488       .  S
O797        C800   1.271       .  A
O798        C800   1.266       .  A
C800       C1060   1.482       .  S
O801        C806   1.272       .  A
O802        C804   1.268       .  A
C803        O805   1.273       .  A
C803        C965   1.495       .  S
C804       C1088   1.488       .  S
C806        C934   1.494       .  S
C807        C909   1.500       .  S
C807       C2160   1.417   1_445  A
C807        C812   1.416       .  A
C808        C920   1.496       .  S
C808       C2159   1.416   1_655  A
C808       C3513   1.421       .  A
C809        C881   1.496       .  S
C809       C3512   1.424       .  A
C809       C2162   1.424       .  A
C810        C892   1.487       .  S
C810       C2161   1.421   1_545  A
C810       C3515   1.421       .  A
C811        C850   1.489       .  S
C811       C3514   1.417   1_455  A
C811        C812   1.420       .  A
C812        C864   1.489       .  S
C813        C993   1.484       .  S
C813        N814   1.351       .  A
C813        N818   1.369   1_545  A
N814        C815   1.349   1_545  A
C815        C906   1.472       .  S
C815       N2168   1.354       .  A
N816       C2167   1.351       .  A
N816        C817   1.356       .  A
C817       C1301   1.483       .  S
C817       N2170   1.366       .  A
N818       C2169   1.370       .  A
C819        C962   1.495       .  S
C819       N2172   1.367       .  A
C819        N824   1.354       .  A
N820       C2171   1.372   1_545  A
N820        C821   1.371       .  A
C821       C1189   1.492       .  S
C821        N822   1.360       .  A
N822        C823   1.348       .  A
C823        C895   1.472       .  S
C823       N2176   1.348   1_545  A
N824       C2175   1.350       .  A
C825        C976   1.472       .  S
C825        N826   1.357       .  A
C825        N830   1.359       .  A
N826        C827   1.355       .  A
C827        C853   1.486       .  S
C827       N3532   1.354       .  A
N828       C3531   1.351   1_455  A
N828        C829   1.356       .  A
C829       C1273   1.468       .  S
C829       N3534   1.363   1_455  A
N830       C3533   1.360       .  A
C831       C1217   1.485       .  S
C831        N832   1.370       .  A
C831        N836   1.362       .  A
N832        C833   1.369       .  A
C833        C937   1.497       .  S
C833        N834   1.350       .  A
N834        C835   1.347       .  A
C835        C867   1.478       .  S
C835        N836   1.353       .  A
C837        C951   1.493       .  S
C837        N838   1.356       .  A
C837        N842   1.368   1_455  A
N838        C839   1.347   1_455  A
C839        C923   1.470       .  S
C839       N3544   1.352       .  A
N840       C3543   1.353       .  A
N840        C841   1.359       .  A
C841       C1231   1.493       .  S
C841       N3546   1.369       .  A
N842       C3545   1.371       .  A
C843       C1315   1.485       .  S
C843        N844   1.361       .  A
C843        N848   1.362       .  A
N844        C845   1.357       .  A
C845       C1004   1.481       .  S
C845        N846   1.355       .  A
N846        C847   1.359       .  A
C847        C878   1.481       .  S
C847        N848   1.361       .  A
C849       C3554   1.402       .  A
C849        C854   1.396       .  A
C849        H856   1.080       .  S
C850       C3553   1.401   1_455  A
C850        C851   1.419       .  A
C851        C852   1.407       .  A
C851        N858   1.443       .  S
C852       C3557   1.404       .  A
C852        H857   1.083       .  S
C853       C3556   1.406       .  A
C853        C854   1.410       .  A
C854        N855   1.430       .  S
N855        O859   1.262       .  A
N855        O860   1.262       .  A
N858        O862   1.262       .  A
N858        O861   1.263       .  A
C863        C864   1.408       .  A
C863        C868   1.401       .  A
C863        H870   1.083       .  S
C864        C865   1.412       .  A
C865        C866   1.394       .  A
C865        N872   1.433       .  S
C866        C867   1.402       .  A
C866        H871   1.081       .  S
C867        C868   1.408       .  A
C868        N869   1.429       .  S
N869        O873   1.262       .  A
N869        O874   1.262       .  A
N872        O876   1.260       .  A
N872        O875   1.262       .  A
C877        C878   1.403       .  A
C877        C882   1.400       .  A
C877        H884   1.083       .  S
C878        C879   1.410       .  A
C879        C880   1.400       .  A
C879        N886   1.428       .  S
C880        C881   1.404       .  A
C880        H885   1.082       .  S
C881        C882   1.416       .  A
C882        N883   1.431       .  S
N883        O887   1.261       .  A
N883        O888   1.259       .  A
N886        O890   1.261       .  A
N886        O889   1.262       .  A
C891       C2244   1.406       .  A
C891        C896   1.400       .  A
C891        H898   1.082       .  S
C892       C2243   1.405       .  A
C892        C893   1.409   1_545  A
C893        C894   1.392       .  A
C893        N900   1.429       .  S
C894        C895   1.400   1_565  A
C894        H899   1.081       .  S
C895       C2248   1.410       .  A
C896       C2247   1.409       .  A
C896        N897   1.429       .  S
N897        O901   1.262       .  A
N897        O902   1.262       .  A
N900        O904   1.262       .  A
N900        O903   1.261   1_565  A
C905        C906   1.397   1_545  A
C905        C910   1.397       .  A
C905        H912   1.084       .  S
C906       C2259   1.405       .  A
C907       C2258   1.399       .  A
C907        C908   1.396       .  A
C907        N914   1.429       .  S
C908       C2261   1.405       .  A
C908        H913   1.082       .  S
C909       C2260   1.409   1_545  A
C909        C910   1.415       .  A
C910        N911   1.430       .  S
N911        O915   1.261   1_545  A
N911        O916   1.262       .  A
N914        O918   1.262       .  A
N914        O917   1.262       .  A
C919        C920   1.398       .  A
C919        C924   1.395       .  A
C919        H926   1.076       .  S
C920       C3625   1.420       .  A
C921       C3624   1.416       .  A
C921        C922   1.402       .  A
C921        N928   1.430       .  S
C922       C3627   1.404       .  A
C922        H927   1.082       .  S
C923       C3626   1.399       .  A
C923        C924   1.407       .  A
C924        N925   1.429       .  S
N925        O929   1.261       .  A
N925        O930   1.262   1_655  A
N928        O932   1.261       .  A
N928        O931   1.261       .  A
C933        C934   1.400       .  A
C933        C938   1.390       .  A
C933        H940   1.083       .  S
C934        C935   1.417       .  A
C935        C936   1.410       .  A
C935        N942   1.427       .  S
C936        C937   1.408       .  A
C936        H941   1.083       .  S
C937        C938   1.424       .  A
C938        N939   1.431       .  S
N939        O943   1.262       .  A
N939        O944   1.262       .  A
N942        O946   1.262       .  A
N942        O945   1.262       .  A
C947        C948   1.406       .  A
C947        C952   1.407       .  A
C947        H954   1.084       .  S
C948        C949   1.409       .  A
C949        C950   1.392       .  A
C949        N956   1.430       .  S
C950        C951   1.408       .  A
C950        H955   1.081       .  S
C951        C952   1.415       .  A
C952        N953   1.428       .  S
N953        O957   1.261       .  A
N953        O958   1.261       .  A
N956        O960   1.262       .  A
N956        O959   1.262       .  A
C961        C962   1.408       .  A
C961        C966   1.408       .  A
C961        H968   1.083       .  S
C962        C963   1.421       .  A
C963        C964   1.392       .  A
C963        N970   1.433       .  S
C964        C965   1.405       .  A
C964        H969   1.083       .  S
C965        C966   1.416       .  A
C966        N967   1.428       .  S
N967        O971   1.262       .  A
N967        O972   1.262       .  A
N970        O974   1.262       .  A
N970        O973   1.262       .  A
C975        C976   1.401       .  A
C975        C980   1.398       .  A
C975        H982   1.084       .  S
C976        C977   1.409       .  A
C977        C978   1.396       .  A
C977        N984   1.426       .  S
C978        C979   1.403       .  A
C978        H983   1.084       .  S
C979        C980   1.413       .  A
C980        N981   1.426       .  S
N981        O985   1.262       .  A
N981        O986   1.262       .  A
N984        O988   1.261       .  A
N984        O987   1.262       .  A
C989        C990   1.404       .  A
C989        C994   1.398       .  A
C989        H996   1.083       .  S
C990        C991   1.423       .  A
C991        C992   1.406       .  A
C991        N998   1.430       .  S
C992        C993   1.401       .  A
C992        H997   1.084       .  S
C993        C994   1.415       .  A
C994        N995   1.431       .  S
N995        O999   1.262       .  A
N995       O1000   1.262       .  A
N998       O1002   1.262       .  A
N998       O1001   1.262       .  A
C1003      C1004   1.402       .  A
C1003      C1008   1.403       .  A
C1003      H1010   1.083       .  S
C1004      C1005   1.410       .  A
C1005      C1006   1.400       .  A
C1005      N1012   1.430       .  S
C1006      C1007   1.408       .  A
C1006      H1011   1.083       .  S
C1007      C1008   1.419       .  A
C1008      N1009   1.430       .  S
N1009      O1013   1.262       .  A
N1009      O1014   1.262       .  A
N1012      O1016   1.262       .  A
N1012      O1015   1.262       .  A
C1017      C1018   1.406       .  A
C1017      C1022   1.396       .  A
C1017      H1024   1.083       .  S
C1018      C1019   1.420       .  A
C1019      C1020   1.400       .  A
C1019      N1026   1.429       .  S
C1020      C1021   1.400       .  A
C1020      H1025   1.084       .  S
C1021      C1022   1.409       .  A
C1022      N1023   1.430       .  S
N1023      O1027   1.261       .  A
N1023      O1028   1.262       .  A
N1026      O1030   1.261       .  A
N1026      O1029   1.262       .  A
C1031      C1032   1.405       .  A
C1031      C1036   1.408       .  A
C1031      H1038   1.084       .  S
C1032      C1033   1.414       .  A
C1033      C1034   1.397       .  A
C1033      N1040   1.430       .  S
C1034      C1035   1.401       .  A
C1034      H1039   1.084       .  S
C1035      C1036   1.412       .  A
C1036      N1037   1.428       .  S
N1037      O1041   1.261       .  A
N1037      O1042   1.259       .  A
N1040      O1044   1.262       .  A
N1040      O1043   1.262       .  A
C1045      C1046   1.402       .  A
C1045      C1050   1.390       .  A
C1045      H1052   1.084       .  S
C1046      C1047   1.416       .  A
C1047      C1048   1.411       .  A
C1047      N1054   1.427       .  S
C1048      C1049   1.407       .  A
C1048      H1053   1.083       .  S
C1049      C1050   1.417       .  A
C1050      N1051   1.429       .  S
N1051      O1055   1.261       .  A
N1051      O1056   1.260       .  A
N1054      O1058   1.262       .  A
N1054      O1057   1.262       .  A
C1059      C1060   1.404       .  A
C1059      C1064   1.395       .  A
C1059      H1066   1.084       .  S
C1060      C1061   1.415       .  A
C1061      C1062   1.398       .  A
C1061      N1068   1.428       .  S
C1062      C1063   1.402       .  A
C1062      H1067   1.084       .  S
C1063      C1064   1.409       .  A
C1064      N1065   1.428       .  S
N1065      O1069   1.261       .  A
N1065      O1070   1.262       .  A
N1068      O1072   1.262       .  A
N1068      O1071   1.262       .  A
C1073      C1074   1.411       .  A
C1073      C1078   1.411       .  A
C1073      H1080   1.081       .  S
C1074      C1075   1.412       .  A
C1075      C1076   1.391       .  A
C1075      N1082   1.430       .  S
C1076      C1077   1.396       .  A
C1076      H1081   1.084       .  S
C1077      C1078   1.412       .  A
C1078      N1079   1.429       .  S
N1079      O1083   1.262       .  A
N1079      O1084   1.261       .  A
N1082      O1086   1.262       .  A
N1082      O1085   1.262       .  A
C1087      C1088   1.407       .  A
C1087      C1092   1.398       .  A
C1087      H1094   1.084       .  S
C1088      C1089   1.415       .  A
C1089      C1090   1.404       .  A
C1089      N1096   1.429       .  S
C1090      C1091   1.405       .  A
C1090      H1095   1.084       .  S
C1091      C1092   1.405       .  A
C1092      N1093   1.426       .  S
N1093      O1097   1.260       .  A
N1093      O2450   1.262       .  A
N1096      O1100   1.262       .  A
N1096      O1099   1.262       .  A
O1098      N2445   1.262   1_545  A
C1101      C1102   1.399       .  A
C1101      C1106   1.396       .  A
C1101      H1108   1.078       .  S
C1102      C1103   1.418       .  A
C1103      C1104   1.401       .  A
C1103      N1110   1.432       .  S
C1104      C1105   1.402       .  A
C1104      H1109   1.083       .  S
C1105      C1106   1.409       .  A
C1106      N1107   1.429       .  S
N1107      O1111   1.262       .  A
N1107      O1112   1.262       .  A
N1110      O1114   1.260       .  A
N1110      O1113   1.261       .  A
C1115      C3820   1.398   1_655  A
C1115      C1120   1.398       .  A
C1115      H1122   1.078       .  S
C1116      C3819   1.396       .  A
C1116      C1117   1.413       .  A
C1117      C1118   1.397       .  A
C1117      N1124   1.431       .  S
C1118      C1119   1.402       .  A
C1118      H1123   1.081       .  S
C1119      C3824   1.409       .  A
C1120      C3823   1.410   1_655  A
C1120      N1121   1.430       .  S
N1121      O1125   1.262       .  A
N1121      O1126   1.262   1_655  A
N1124      O1128   1.261       .  A
N1124      O1127   1.261       .  A
C1129      C2482   1.396   1_545  A
C1129      C1134   1.392       .  A
C1129      H1136   1.069       .  S
C1130      C2481   1.396       .  A
C1130      C1131   1.413       .  A
C1131      C1132   1.401       .  A
C1131      N1138   1.430       .  S
C1132      C1133   1.404       .  A
C1132      H1137   1.084       .  S
C1133      C2486   1.411       .  A
C1134      C2485   1.408       .  A
C1134      N1135   1.424       .  S
N1135      O1139   1.262       .  A
N1135      O1140   1.262   1_545  A
N1138      O1142   1.261       .  A
N1138      O1141   1.261       .  A
C1143      C1144   1.401       .  A
C1143      C1148   1.394       .  A
C1143      H1150   1.082       .  S
C1144      C3849   1.413       .  A
C1145      C3848   1.414   1_655  A
C1145      C1146   1.400       .  A
C1145      N1152   1.430       .  S
C1146      C3851   1.404   1_655  A
C1146      H1151   1.083       .  S
C1147      C3850   1.403       .  A
C1147      C1148   1.410       .  A
C1148      N1149   1.429       .  S
N1149      O1153   1.261       .  A
N1149      O1154   1.262       .  A
N1152      O1156   1.262       .  A
N1152      O1155   1.261       .  A
C1157      C1158   1.394       .  A
C1157      C1162   1.391       .  A
C1157      H1164   1.081       .  S
C1158      C1159   1.417       .  A
C1159      C1160   1.405       .  A
C1159      N1166   1.433       .  S
C1160      C1161   1.410       .  A
C1160      H1165   1.083       .  S
C1161      C1162   1.412       .  A
C1162      N1163   1.420       .  S
N1163      O1167   1.262       .  A
N1163      O1168   1.262       .  A
N1166      O1170   1.261       .  A
N1166      O1169   1.262       .  A
C1171      C2524   1.397       .  A
C1171      C1176   1.399       .  A
C1171      H1178   1.085   1_545  S
C1172      C2523   1.400       .  A
C1172      C1173   1.406       .  A
C1173      C1174   1.401       .  A
C1173      N1180   1.430       .  S
C1174      C1175   1.407       .  A
C1174      H1179   1.078       .  S
C1175      C2528   1.411       .  A
C1176      C2527   1.416       .  A
C1176      N1177   1.428   1_545  S
N1177      O1181   1.260   1_565  A
N1177      O1182   1.260       .  A
N1180      O1184   1.262       .  A
N1180      O1183   1.262       .  A
C1185      C1186   1.406       .  A
C1185      C1190   1.407       .  A
C1185      H1192   1.083       .  S
C1186      C1187   1.411       .  A
C1187      C1188   1.394       .  A
C1187      N1194   1.429       .  S
C1188      C1189   1.406       .  A
C1188      H1193   1.082       .  S
C1189      C1190   1.413       .  A
C1190      N1191   1.423       .  S
N1191      O1195   1.259       .  A
N1191      O1196   1.260       .  A
N1194      O1198   1.262       .  A
N1194      O1197   1.262       .  A
C1199      C1200   1.410       .  A
C1199      C1204   1.398       .  A
C1199      H1206   1.084       .  S
C1200      C1201   1.412       .  A
C1201      C1202   1.398       .  A
C1201      N1208   1.429       .  S
C1202      C1203   1.405       .  A
C1202      H1207   1.081       .  S
C1203      C1204   1.406       .  A
C1204      N1205   1.426       .  S
N1205      O1209   1.260       .  A
N1205      O1210   1.262   1_545  A
N1208      O1212   1.262       .  A
N1208      O1211   1.262       .  A
C1213      C1214   1.402       .  A
C1213      C1218   1.405       .  A
C1213      H1220   1.084       .  S
C1214      C1215   1.409       .  A
C1215      C1216   1.398       .  A
C1215      N1222   1.430       .  S
C1216      C1217   1.406       .  A
C1216      H1221   1.083       .  S
C1217      C1218   1.412       .  A
C1218      N1219   1.425       .  S
N1219      O1223   1.261       .  A
N1219      O1224   1.261       .  A
N1222      O1226   1.262       .  A
C1227      C1228   1.402       .  A
C1227      C1232   1.394       .  A
C1227      H1234   1.084       .  S
C1228      C1229   1.416       .  A
C1229      C1230   1.408       .  A
C1229      N1236   1.430       .  S
C1230      C1231   1.408       .  A
C1230      H1235   1.083       .  S
C1231      C1232   1.417       .  A
C1232      N1233   1.429       .  S
N1233      O1237   1.262       .  A
N1233      O3942   1.262       .  A
N1236      O1240   1.261       .  A
N1236      O1239   1.262       .  A
O1238      N3937   1.262       .  A
C1241      C1242   1.408       .  A
C1241      C1246   1.397       .  A
C1241      H1248   1.083       .  S
C1242      C1243   1.414       .  A
C1243      C1244   1.395       .  A
C1243      N1250   1.428       .  S
C1244      C1245   1.399       .  A
C1244      H1249   1.084       .  S
C1245      C1246   1.406       .  A
C1246      N1247   1.429       .  S
N1247      O1251   1.261       .  A
N1247      O1252   1.262       .  A
N1250      O1254   1.261       .  A
N1250      O1253   1.262       .  A
C1255      C1256   1.405       .  A
C1255      C1260   1.395       .  A
C1255      H1262   1.083       .  S
C1256      C1257   1.410       .  A
C1257      C1258   1.397       .  A
C1257      N1264   1.426       .  S
C1258      C1259   1.407       .  A
C1258      H1263   1.083       .  S
C1259      C1260   1.412       .  A
C1260      N1261   1.427       .  S
N1261      O1265   1.261       .  A
N1261      O1266   1.262       .  A
N1264      O1268   1.262       .  A
N1264      O3971   1.261       .  A
O1267      N3968   1.261       .  A
C1269      C1270   1.407       .  A
C1269      C1274   1.395       .  A
C1269      H1276   1.083       .  S
C1270      C1271   1.416       .  A
C1271      C1272   1.397       .  A
C1271      N1278   1.429       .  S
C1272      C1273   1.402       .  A
C1272      H1277   1.084       .  S
C1273      C1274   1.405       .  A
C1274      N1275   1.427       .  S
N1275      O1279   1.262   1_455  A
N1275      O3984   1.260   1_455  A
N1278      O1282   1.262       .  A
N1278      O1281   1.262       .  A
O1280      N3979   1.261       .  A
C1283      C1284   1.401       .  A
C1283      C1288   1.389       .  A
C1283      H1290   1.084       .  S
C1284      C1285   1.410       .  A
C1285      C1286   1.411       .  A
C1285      N1292   1.428       .  S
C1286      C1287   1.411       .  A
C1286      H1291   1.084       .  S
C1287      C1288   1.412       .  A
C1288      N1289   1.429       .  S
N1289      O1293   1.262       .  A
N1289      O1294   1.262       .  A
N1292      O1296   1.262       .  A
N1292      O1295   1.261       .  A
C1297      C1298   1.409       .  A
C1297      C1302   1.401       .  A
C1297      H1304   1.083       .  S
C1298      C1299   1.412       .  A
C1299      C1300   1.402       .  A
C1299      N1306   1.428       .  S
C1300      C1301   1.407       .  A
C1300      H1305   1.084       .  S
C1301      C1302   1.409       .  A
C1302      N1303   1.429       .  S
N1303      O1307   1.262       .  A
N1303      O1308   1.262       .  A
N1306      O1310   1.262       .  A
N1306      O1309   1.262       .  A
C1311      C1312   1.405       .  A
C1311      C1316   1.396       .  A
C1311      H1318   1.083       .  S
C1312      C1313   1.416       .  A
C1313      C1314   1.400       .  A
C1313      N1320   1.428       .  S
C1314      C1315   1.405       .  A
C1314      H1319   1.083       .  S
C1315      C1316   1.411       .  A
C1316      N1317   1.426       .  S
N1317      O1321   1.261       .  A
N1317      O1322   1.261       .  A
N1320      O1324   1.262       .  A
N1320      O1323   1.262       .  A
C1325      C1326   1.407       .  A
C1325      C1330   1.409       .  A
C1325      H1332   1.083       .  S
C1326      C1327   1.411       .  A
C1327      C1328   1.395       .  A
C1327      N1334   1.430       .  S
C1328      C1329   1.405       .  A
C1328      H1333   1.084       .  S
C1329      C1330   1.412       .  A
C1330      N1331   1.425       .  S
N1331      O1335   1.262       .  A
N1331      O1336   1.260       .  A
N1334      O1338   1.262       .  A
N1334      O1337   1.262       .  A
C1339      C1340   1.396       .  A
C1339      C1344   1.390       .  A
C1339      H1346   1.084       .  S
C1340      C1341   1.411       .  A
C1341      C1342   1.409       .  A
C1341      N1348   1.429       .  S
C1342      C1343   1.411       .  A
C1342      H1347   1.083       .  S
C1343      C1344   1.414       .  A
C1344      N1345   1.428       .  S
N1345      O1349   1.262       .  A
N1345      O1350   1.263       .  A
N1348      O1352   1.262       .  A
N1348      O1351   1.262       .  A
Fe1353     O1369   2.057       .  S
Fe1353     O1359   2.075       .  S
Fe1353     O2042   2.082   1_554  S
Fe1353     O2034   2.050   1_554  S
Fe1353     O2040   1.942       .  S
Fe1354     O2033   2.098       .  S
Fe1354     O2037   2.087       .  S
Fe1354     O1365   2.091       .  S
Fe1354     O1370   2.078       .  S
Fe1354     O1364   1.968       .  S
Fe1355     O2049   2.054       .  S
Fe1355     O1360   2.052       .  S
Fe1355     O2043   2.066       .  S
Fe1355     O1356   2.081       .  S
Fe1355     O1364   1.968       .  S
O1356      C1363   1.270       .  A
O1357     Fe2030   2.070   1_554  S
O1357      C1371   1.271       .  A
O1358     Fe2029   2.057       .  S
O1358      C1363   1.270       .  A
O1359      C1362   1.273       .  A
O1360      C1372   1.267       .  A
O1361     Fe2030   2.086   1_554  S
O1361      C1374   1.273       .  A
C1362      O1367   1.265       .  A
C1362      C2016   1.474       .  S
C1363      C1988   1.492       .  S
O1364     Fe2029   1.951       .  S
O1365      C1368   1.275       .  A
O1366     Fe2029   2.068       .  S
O1366      C1368   1.270       .  A
O1367     Fe2031   2.058       .  S
C1368      C1974   1.495       .  S
O1369      C1374   1.270       .  A
O1370      C1372   1.272       .  A
C1371      O1373   1.271       .  A
C1371      C1960   1.478       .  S
C1372      C1946   1.489       .  S
O1373     Fe2031   2.066       .  S
C1374      C2002   1.484       .  S
Fe1375     O1391   2.072       .  S
Fe1375     O1381   2.084       .  S
Fe1375     O2064   2.082       .  S
Fe1375     O2056   2.074       .  S
Fe1375     O2062   1.959       .  S
Fe1376     O2055   2.048       .  S
Fe1376     O2059   2.062       .  S
Fe1376     O1387   2.049   1_556  S
Fe1376     O1392   2.052   1_556  S
Fe1376     O1386   1.972       .  S
Fe1377     O2071   2.073       .  S
Fe1377     O1382   2.059   1_556  S
Fe1377     O2065   2.052       .  S
Fe1377     O1378   2.068   1_556  S
Fe1377     O1386   1.972       .  S
O1378      C1385   1.269       .  A
O1379     Fe2052   2.075       .  S
O1379      C1393   1.271       .  A
O1380     Fe2051   2.063   1_554  S
O1380      C1385   1.268       .  A
O1381      C1384   1.272       .  A
O1382      C1394   1.267       .  A
O1383     Fe2052   2.069       .  S
O1383      C1396   1.272       .  A
C1384      O1389   1.270       .  A
C1384      C1904   1.485       .  S
C1385      C1935   1.493       .  S
O1386     Fe2051   1.972       .  S
O1387      C1390   1.266       .  A
O1388     Fe2051   2.073   1_554  S
O1388      C1390   1.271       .  A
O1389     Fe2053   2.058       .  S
C1390      C1876   1.482       .  S
O1391      C1396   1.272       .  A
O1392      C1394   1.266       .  A
C1393      O1395   1.265       .  A
C1393      C1890   1.474       .  S
C1394      C1918   1.475       .  S
O1395     Fe2053   2.049       .  S
C1396      C1862   1.485       .  S
C1397      C1851   1.496       .  S
C1397      C1402   1.420       .  A
C1398      C1792   1.479       .  S
C1398      C4103   1.416       .  A
C1399      C1778   1.493       .  S
C1399      C4102   1.408       .  A
C1400      C1806   1.493       .  S
C1400      C4105   1.421   1_455  A
C1401      C1820   1.483       .  S
C1401      C4104   1.419       .  A
C1401      C1402   1.421       .  A
C1402      C1834   1.492       .  S
C1403      C1767   1.475       .  S
C1403      N1404   1.353       .  A
C1403      N1408   1.366       .  A
N1404      C1405   1.349       .  A
C1405      C1848   1.469       .  S
N1406      C1407   1.357       .  A
C1407      C1879   1.478       .  S
C1409      C1750   1.484       .  S
C1409      N1410   1.361       .  A
C1411      C1809   1.475       .  S
C1411      N1412   1.354       .  A
N1412      C1413   1.357       .  A
C1413      C2005   1.488       .  S
C1413      N1414   1.365       .  A
C1415      C1921   1.466       .  S
C1415      N1416   1.359       .  A
C1415      N1420   1.354       .  A
N1416      C1417   1.359       .  A
C1417      C1739   1.471       .  S
C1417      N1418   1.359       .  A
N1418      C1419   1.357       .  A
C1419      C1781   1.479       .  S
C1419      N1420   1.351       .  A
C1421      C1725   1.487       .  S
C1421      N1422   1.367       .  A
C1421      N1426   1.355       .  A
N1422      C4127   1.365       .  A
C1423      C1963   1.482       .  S
C1423      N4126   1.360   1_455  A
C1423      N1424   1.359       .  A
N1424      C4129   1.358       .  A
C1425      C1795   1.463       .  S
C1425      N4128   1.351       .  A
C1425      N1426   1.349       .  A
C1427      C2019   1.480       .  S
C1427      N1428   1.360       .  A
C1427      N1432   1.360       .  A
N1428      C1429   1.360       .  A
C1429      C1711   1.480       .  S
C1429      N1430   1.358       .  A
N1430      C1431   1.356       .  A
C1431      C1837   1.490       .  S
C1431      N1432   1.358       .  A
C1433      C1697   1.474       .  S
C1433      N1434   1.358       .  A
C1433      N4142   1.363       .  A
N1434      C4139   1.353       .  A
C1435      C1823   1.468       .  S
C1435      N4138   1.349       .  A
C1435      N1436   1.350       .  A
N1436      C1437   1.356       .  A
C1437      C1932   1.489       .  S
C1437      N1438   1.364       .  A
N1438      C4137   1.367       .  A
Fe1439     O1455   2.066       .  S
Fe1439     O1445   2.061       .  S
Fe1439     O1452   2.070       .  S
Fe1439     O1444   2.062       .  S
Fe1439     O1450   1.961       .  S
Fe1440     O1443   2.075       .  S
Fe1440     O1447   2.075       .  S
Fe1440     O1451   2.065       .  S
Fe1440     O1456   2.090       .  S
Fe1440     O1450   1.952       .  S
Fe1441     O1459   2.065       .  S
Fe1441     O1446   2.059       .  S
Fe1441     O1453   2.076       .  S
Fe1441     O1442   2.065       .  S
Fe1441     O1450   1.952       .  S
O1442      C1449   1.271       .  A
O1443      C1457   1.273       .  A
O1444      C1449   1.268       .  A
O1445      C1448   1.271       .  A
O1446      C1458   1.270       .  A
O1447      C1460   1.274       .  A
C1448      O1453   1.270       .  A
C1448      C1722   1.492       .  S
C1449      C1655   1.486       .  S
O1451      C1454   1.273       .  A
O1452      C1454   1.269       .  A
C1454      C1666   1.485       .  S
O1455      C1460   1.268       .  A
O1456      C1458   1.272       .  A
C1457      O1459   1.271       .  A
C1457      C1708   1.480       .  S
C1458      C1683   1.496       .  S
C1460      C1753   1.476       .  S
Fe1461     O1477   2.069       .  S
Fe1461     O1467   2.056       .  S
Fe1461     O1474   2.050       .  S
Fe1461     O1466   2.078       .  S
Fe1461     O1472   1.955       .  S
Fe1462     O1465   2.086       .  S
Fe1462     O1469   2.072       .  S
Fe1462     O1473   2.077       .  S
Fe1462     O1478   2.065       .  S
Fe1462     O1472   1.958       .  S
Fe1463     O1481   2.076       .  S
Fe1463     O1468   2.070       .  S
Fe1463     O1475   2.066       .  S
Fe1463     O1464   2.059       .  S
Fe1463     O1472   1.954       .  S
O1464      C1471   1.272       .  A
O1465      C1479   1.277       .  A
O1466      C1471   1.271       .  A
O1467      C1470   1.267       .  A
O1468      C1480   1.269       .  A
O1469      C1482   1.269       .  A
C1470      O1475   1.268       .  A
C1470      C1624   1.473       .  S
C1471      C1694   1.489       .  S
O1473      C1476   1.274       .  A
O1474      C1476   1.266       .  A
C1476      C1736   1.484       .  S
O1477      C1482   1.273       .  A
O1478      C1480   1.267       .  A
C1479      O1481   1.272       .  A
C1479      C1641   1.484       .  S
C1480      C1764   1.487       .  S
C1482      C1610   1.493       .  S
C1483      C1585   1.489       .  S
C1483      C1488   1.420       .  A
C1484      C1596   1.493       .  S
C1484      C4189   1.420       .  A
C1485      C1557   1.501       .  S
C1485      C4188   1.421       .  A
C1486      C1568   1.494       .  S
C1486      C4191   1.420       .  A
C1487      C1526   1.497       .  S
C1487      C4190   1.418   1_455  A
C1487      C1488   1.415       .  A
C1488      C1540   1.495       .  S
C1489      C1669   1.469       .  S
C1489      N1490   1.350       .  A
C1489      N1494   1.362       .  A
N1490      C1491   1.350       .  A
C1491      C1582   1.465       .  S
N1492      C1493   1.357       .  A
C1493      C1977   1.485       .  S
C1495      C1638   1.487       .  S
C1495      N1500   1.357       .  A
N1496      C1497   1.373       .  A
C1497      C1865   1.494       .  S
C1497      N1498   1.361       .  A
N1498      C1499   1.347       .  A
C1499      C1571   1.477       .  S
C1501      C1652   1.476       .  S
C1501      N1502   1.353       .  A
C1501      N1506   1.360       .  A
N1502      C1503   1.350       .  A
C1503      C1529   1.482       .  S
C1503      N4208   1.356       .  A
N1504      C4207   1.352   1_455  A
N1504      C1505   1.360       .  A
C1505      C1949   1.481       .  S
C1505      N4210   1.365   1_455  A
N1506      C4209   1.365       .  A
C1507      C1893   1.481       .  S
C1507      N1508   1.366       .  A
C1507      N1512   1.360       .  A
N1508      C1509   1.366       .  A
C1509      C1613   1.491       .  S
C1509      N1510   1.354       .  A
N1510      C1511   1.351       .  A
C1511      C1543   1.482       .  S
C1511      N1512   1.353       .  A
C1513      C1627   1.478       .  S
C1513      N1514   1.357       .  A
C1513      N1518   1.362   1_455  A
N1514      C1515   1.351   1_455  A
C1515      C1599   1.484       .  S
C1515      N4220   1.355       .  A
N1516      C4219   1.355       .  A
N1516      C1517   1.360       .  A
C1517      C1907   1.487       .  S
C1517      N4222   1.367       .  A
N1518      C4221   1.365       .  A
C1519      C1991   1.486       .  S
C1519      N1520   1.362       .  A
C1519      N1524   1.360       .  A
N1520      C1521   1.361       .  A
C1521      C1680   1.486       .  S
C1521      N1522   1.359       .  A
N1522      C1523   1.359       .  A
C1523      C1554   1.485       .  S
C1523      N1524   1.359       .  A
C1525      C4230   1.397       .  A
C1525      C1530   1.393       .  A
C1525      H1532   1.077       .  S
C1526      C4229   1.399   1_455  A
C1526      C1527   1.421       .  A
C1527      C1528   1.412       .  A
C1527      N1534   1.442       .  S
C1528      C4233   1.405   1_455  A
C1528      H1533   1.084       .  S
C1529      C4232   1.404       .  A
C1529      C1530   1.409       .  A
C1530      N1531   1.431       .  S
N1531      O1535   1.262       .  A
N1531      O1536   1.262       .  A
N1534      O1538   1.262       .  A
N1534      O1537   1.263       .  A
C1539      C1540   1.407       .  A
C1539      C1544   1.402       .  A
C1539      H1546   1.084       .  S
C1540      C1541   1.417       .  A
C1541      C1542   1.398       .  A
C1541      N1548   1.433       .  S
C1542      C1543   1.402       .  A
C1542      H1547   1.083       .  S
C1543      C1544   1.410       .  A
C1544      N1545   1.429       .  S
N1545      O1549   1.262       .  A
N1545      O1550   1.262       .  A
N1548      O1552   1.260       .  A
N1548      O1551   1.263       .  A
C1553      C1554   1.405       .  A
C1553      C1558   1.405       .  A
C1553      H1560   1.083       .  S
C1554      C1555   1.411       .  A
C1555      C1556   1.397       .  A
C1555      N1562   1.428       .  S
C1556      C1557   1.402       .  A
C1556      H1561   1.082       .  S
C1557      C1558   1.418       .  A
C1558      N1559   1.432       .  S
N1559      O1563   1.261       .  A
N1559      O1564   1.260       .  A
N1562      O1566   1.261       .  A
N1562      O1565   1.262       .  A
C1567      C1572   1.398       .  A
C1567      H1574   1.083       .  S
C1568      C1569   1.411       .  A
C1569      C1570   1.396       .  A
C1569      N1576   1.428       .  S
C1570      C1571   1.399       .  A
C1570      H1575   1.082       .  S
C1572      N1573   1.429       .  S
N1573      O1577   1.262   1_545  A
N1573      O1578   1.262       .  A
N1576      O1580   1.260       .  A
N1576      O1579   1.261       .  A
C1581      C1582   1.398       .  A
C1581      C1586   1.394       .  A
C1581      H1588   1.084       .  S
C1583      C1584   1.401       .  A
C1583      N1590   1.430       .  S
C1584      H1589   1.081       .  S
C1585      C1586   1.413       .  A
C1586      N1587   1.430       .  S
N1587      O1591   1.261       .  A
N1587      O1592   1.263       .  A
N1590      O1594   1.262       .  A
N1590      O1593   1.262   1_565  A
C1595      C1596   1.389   1_455  A
C1595      C1600   1.387       .  A
C1595      H1602   1.139       .  S
C1596      C4301   1.416       .  A
C1597      C4300   1.413       .  A
C1597      C1598   1.399       .  A
C1597      N1604   1.431       .  S
C1598      C4303   1.403       .  A
C1598      H1603   1.080       .  S
C1599      C4302   1.404       .  A
C1599      C1600   1.415   1_655  A
C1600      N1601   1.428       .  S
N1601      O1605   1.262       .  A
N1601      O1606   1.262       .  A
N1604      O1608   1.261       .  A
N1604      O1607   1.261       .  A
C1609      C1610   1.402       .  A
C1609      C1614   1.392       .  A
C1609      H1616   1.084       .  S
C1610      C1611   1.418       .  A
C1611      C1612   1.408       .  A
C1611      N1618   1.428       .  S
C1612      C1613   1.406       .  A
C1612      H1617   1.083       .  S
C1613      C1614   1.418       .  A
C1614      N1615   1.429       .  S
N1615      O1619   1.260       .  A
N1615      O1620   1.262       .  A
N1618      O1622   1.262       .  A
N1618      O1621   1.262       .  A
C1623      C1624   1.402       .  A
C1623      C1628   1.402       .  A
C1623      H1630   1.084       .  S
C1624      C1625   1.410       .  A
C1625      C1626   1.392       .  A
C1625      N1632   1.430       .  S
C1626      C1627   1.403       .  A
C1626      H1631   1.083       .  S
C1627      C1628   1.413       .  A
C1628      N1629   1.427       .  S
N1629      O1633   1.261       .  A
N1629      O1634   1.261       .  A
N1632      O1636   1.262       .  A
N1632      O1635   1.262       .  A
C1637      C1638   1.407       .  A
C1637      C1642   1.411       .  A
C1637      H1644   1.083       .  S
C1638      C1639   1.415       .  A
C1639      C1640   1.394       .  A
C1639      N1646   1.429       .  S
C1640      C1641   1.399       .  A
C1640      H1645   1.084       .  S
C1641      C1642   1.415       .  A
C1642      N1643   1.428       .  S
N1643      O1647   1.262       .  A
N1643      O1648   1.262       .  A
N1646      O1650   1.262       .  A
N1646      O1649   1.262       .  A
C1651      C1652   1.403       .  A
C1651      C1656   1.396       .  A
C1651      H1658   1.084       .  S
C1652      C1653   1.409       .  A
C1653      C1654   1.398       .  A
C1653      N1660   1.426       .  S
C1654      C1655   1.407       .  A
C1654      H1659   1.083       .  S
C1655      C1656   1.414       .  A
C1656      N1657   1.427       .  S
N1657      O1661   1.262       .  A
N1657      O1662   1.261       .  A
N1660      O1664   1.261       .  A
N1660      O1663   1.262       .  A
C1665      C1666   1.404       .  A
C1665      C1670   1.396       .  A
C1665      H1672   1.083       .  S
C1666      C1667   1.421       .  A
C1667      C1668   1.400       .  A
C1667      N1674   1.429       .  S
C1668      C1669   1.398       .  A
C1668      H1673   1.084       .  S
C1669      C1670   1.410       .  A
C1670      N1671   1.430       .  S
N1671      O1675   1.262       .  A
N1671      O1676   1.262       .  A
N1674      O1678   1.262       .  A
N1674      O1677   1.262       .  A
C1679      C1680   1.404       .  A
C1679      C1684   1.404       .  A
C1679      H1686   1.084       .  S
C1680      C1681   1.412       .  A
C1681      C1682   1.400       .  A
C1681      N1688   1.430       .  S
C1682      C1683   1.408       .  A
C1682      H1687   1.083       .  S
C1683      C1684   1.419       .  A
C1684      N1685   1.430       .  S
N1685      O1689   1.262       .  A
N1685      O1690   1.262       .  A
N1688      O1692   1.262       .  A
N1688      O1691   1.262       .  A
C1693      C1694   1.406       .  A
C1693      C1698   1.395       .  A
C1693      H1700   1.083       .  S
C1694      C1695   1.420       .  A
C1695      C1696   1.402       .  A
C1695      N1702   1.429       .  S
C1696      C1697   1.401       .  A
C1696      H1701   1.084       .  S
C1697      C1698   1.409       .  A
C1698      N1699   1.430       .  S
N1699      O1703   1.261       .  A
N1699      O1704   1.261       .  A
N1702      O1706   1.261       .  A
N1702      O1705   1.262       .  A
C1707      C1708   1.404       .  A
C1707      C1712   1.405       .  A
C1707      H1714   1.084       .  S
C1708      C1709   1.414       .  A
C1709      C1710   1.395       .  A
C1709      N1716   1.430       .  S
C1710      C1711   1.400       .  A
C1710      H1715   1.084       .  S
C1711      C1712   1.412       .  A
C1712      N1713   1.426       .  S
N1713      O1717   1.260       .  A
N1713      O1718   1.259       .  A
N1716      O1720   1.262       .  A
N1716      O1719   1.262       .  A
C1721      C1722   1.404       .  A
C1721      C1726   1.392       .  A
C1721      H1728   1.083       .  S
C1722      C1723   1.417       .  A
C1723      C1724   1.407       .  A
C1723      N1730   1.428       .  S
C1724      C1725   1.405       .  A
C1724      H1729   1.083       .  S
C1725      C1726   1.418       .  A
C1726      N1727   1.431       .  S
N1727      O1731   1.262       .  A
N1727      O1732   1.262       .  A
N1730      O1734   1.262       .  A
N1730      O1733   1.262       .  A
C1735      C1736   1.405       .  A
C1735      C1740   1.398       .  A
C1735      H1742   1.083       .  S
C1736      C1737   1.417       .  A
C1737      C1738   1.398       .  A
C1737      N1744   1.429       .  S
C1738      C1739   1.400       .  A
C1738      H1743   1.084       .  S
C1739      C1740   1.408       .  A
C1740      N1741   1.427       .  S
N1741      O1745   1.261       .  A
N1741      O1746   1.262       .  A
N1744      O1748   1.262       .  A
N1744      O1747   1.262       .  A
C1749      C1750   1.410       .  A
C1749      C1754   1.409       .  A
C1749      H1756   1.083       .  S
C1750      C1751   1.412       .  A
C1751      C1752   1.392       .  A
C1751      N1758   1.430       .  S
C1752      C1753   1.399       .  A
C1752      H1757   1.084       .  S
C1753      C1754   1.411       .  A
C1754      N1755   1.428       .  S
N1755      O1759   1.262       .  A
N1755      O1760   1.261       .  A
N1758      O1762   1.262       .  A
N1758      O1761   1.262       .  A
C1763      C1764   1.410       .  A
C1763      C1768   1.400       .  A
C1763      H1770   1.083       .  S
C1764      C1765   1.415       .  A
C1765      C1766   1.398       .  A
C1765      N1772   1.430       .  S
C1766      C1767   1.404       .  A
C1766      H1771   1.084       .  S
C1767      C1768   1.406       .  A
C1768      N1769   1.428       .  S
N1769      O1773   1.261   1_565  A
N1772      O1776   1.262       .  A
N1772      O1775   1.262       .  A
C1777      C1778   1.397       .  A
C1777      C1782   1.392       .  A
C1777      H1784   1.083       .  S
C1778      C1779   1.414       .  A
C1779      C1780   1.401       .  A
C1779      N1786   1.431       .  S
C1780      C1781   1.404       .  A
C1780      H1785   1.085       .  S
C1781      C1782   1.414       .  A
C1782      N1783   1.429       .  S
N1783      O1787   1.262       .  A
N1783      O1788   1.262       .  A
N1786      O1790   1.261       .  A
N1786      O1789   1.262       .  A
C1791      C4496   1.401   1_655  A
C1791      C1796   1.398       .  A
C1791      H1798   1.079       .  S
C1792      C4495   1.398       .  A
C1792      C1793   1.412       .  A
C1793      C1794   1.397       .  A
C1793      N1800   1.430       .  S
C1794      C1795   1.401       .  A
C1794      H1799   1.082       .  S
C1795      C4500   1.405       .  A
C1796      C4499   1.414   1_655  A
C1796      N1797   1.429       .  S
N1797      O1801   1.262       .  A
N1797      O1802   1.262   1_655  A
N1800      O1804   1.261       .  A
N1800      O1803   1.261       .  A
C1805      C1810   1.393       .  A
C1805      H1812   1.080       .  S
C1806      C1807   1.414       .  A
C1807      C1808   1.400       .  A
C1807      N1814   1.430       .  S
C1808      C1809   1.402       .  A
C1808      H1813   1.083       .  S
C1810      N1811   1.425       .  S
N1811      O1815   1.262       .  A
N1811      O1816   1.262       .  A
N1814      O1818   1.261   1_565  A
N1814      O1817   1.262       .  A
C1819      C1820   1.400       .  A
C1819      C1824   1.392       .  A
C1819      H1826   1.082       .  S
C1820      C4525   1.414       .  A
C1821      C4524   1.416       .  A
C1821      C1822   1.401       .  A
C1821      N1828   1.431       .  S
C1822      C4527   1.403   1_655  A
C1822      H1827   1.083       .  S
C1823      C4526   1.401       .  A
C1823      C1824   1.409       .  A
C1824      N1825   1.429       .  S
N1825      O1829   1.261       .  A
N1825      O1830   1.262       .  A
N1828      O1832   1.262       .  A
N1828      O1831   1.261       .  A
C1833      C1834   1.395       .  A
C1833      C1838   1.391       .  A
C1833      H1840   1.082       .  S
C1834      C1835   1.417       .  A
C1835      C1836   1.405       .  A
C1835      N1842   1.433       .  S
C1836      C1837   1.409       .  A
C1836      H1841   1.083       .  S
C1837      C1838   1.411       .  A
C1838      N1839   1.423       .  S
N1839      O1843   1.262       .  A
N1839      O1844   1.262       .  A
N1842      O1846   1.261       .  A
N1842      O1845   1.262       .  A
C1847      C1852   1.399       .  A
C1847      H1854   1.084       .  S
C1848      C1849   1.405       .  A
C1849      C1850   1.400       .  A
C1849      N1856   1.430   1_565  S
C1850      C1851   1.406       .  A
C1850      H1855   1.078       .  S
C1852      N1853   1.429       .  S
N1853      O1857   1.261       .  A
N1853      O1858   1.259       .  A
N1856      O1860   1.262   1_545  A
N1856      O1859   1.262       .  A
C1861      C1862   1.406       .  A
C1861      C1866   1.408       .  A
C1861      H1868   1.084       .  S
C1862      C1863   1.411       .  A
C1863      C1864   1.392       .  A
C1863      N1870   1.430       .  S
C1864      C1865   1.406       .  A
C1864      H1869   1.082       .  S
C1865      C1866   1.414       .  A
C1866      N1867   1.423       .  S
N1867      O1871   1.259       .  A
N1867      O1872   1.260       .  A
N1870      O1874   1.262       .  A
N1870      O1873   1.262       .  A
C1875      C1876   1.407       .  A
C1875      C1880   1.399       .  A
C1875      H1882   1.083       .  S
C1876      C1877   1.410       .  A
C1877      C1878   1.398       .  A
C1877      N1884   1.429       .  S
C1878      C1879   1.405       .  A
C1878      H1883   1.083       .  S
C1879      C1880   1.409       .  A
C1880      N1881   1.427       .  S
N1881      O1885   1.262       .  A
N1881      O1886   1.262       .  A
N1884      O1888   1.262       .  A
N1884      O1887   1.262       .  A
C1889      C1890   1.402       .  A
C1889      C1894   1.402       .  A
C1889      H1896   1.084       .  S
C1890      C1891   1.409       .  A
C1891      C1892   1.396       .  A
C1891      N1898   1.430       .  S
C1892      C1893   1.405       .  A
C1892      H1897   1.084       .  S
C1893      C1894   1.411       .  A
C1894      N1895   1.424       .  S
N1895      O1899   1.261       .  A
N1895      O1900   1.261       .  A
N1898      O1902   1.262       .  A
N1898      O2577   1.262       .  A
O1901      N2574   1.262       .  A
C1903      C1904   1.404       .  A
C1903      C1908   1.394       .  A
C1903      H1910   1.084       .  S
C1904      C1905   1.412       .  A
C1905      C1906   1.407       .  A
C1905      N1912   1.428       .  S
C1906      C1907   1.407       .  A
C1906      H1911   1.081       .  S
C1907      C1908   1.414       .  A
C1908      N1909   1.430       .  S
N1909      O1913   1.262       .  A
N1909      O4618   1.262       .  A
N1912      O1916   1.261       .  A
N1912      O1915   1.262       .  A
O1914      N4613   1.262       .  A
C1917      C1918   1.406       .  A
C1917      C1922   1.398       .  A
C1917      H1924   1.084       .  S
C1918      C1919   1.412       .  A
C1919      C1920   1.394       .  A
C1919      N1926   1.429       .  S
C1920      C1921   1.400       .  A
C1920      H1925   1.084       .  S
C1921      C1922   1.408       .  A
C1922      N1923   1.430       .  S
N1923      O1927   1.261       .  A
N1923      O1928   1.262       .  A
N1926      O1930   1.261       .  A
N1926      O1929   1.262       .  A
C1931      C1932   1.407       .  A
C1931      C1936   1.395       .  A
C1931      H1938   1.083       .  S
C1932      C1933   1.412       .  A
C1933      C1934   1.404       .  A
C1933      N1940   1.428       .  S
C1934      C1935   1.411       .  A
C1934      H1939   1.083       .  S
C1935      C1936   1.413       .  A
C1936      N1937   1.427       .  S
N1937      O1941   1.260       .  A
N1937      O1942   1.262       .  A
N1940      O1944   1.262       .  A
N1940      O4647   1.261       .  A
O1943      N4644   1.261       .  A
C1945      C1946   1.410       .  A
C1945      C1950   1.404       .  A
C1945      H1952   1.082       .  S
C1946      C1947   1.415       .  A
C1947      C1948   1.394       .  A
C1947      N1954   1.430       .  S
C1948      C1949   1.402       .  A
C1948      H1953   1.078       .  S
C1949      C1950   1.410       .  A
C1950      N1951   1.429       .  S
N1951      O1955   1.262   1_455  A
N1951      O4660   1.261       .  A
N1954      O1958   1.262       .  A
N1954      O1957   1.262       .  A
O1956      N4655   1.261       .  A
C1959      C1960   1.401       .  A
C1959      C1964   1.393       .  A
C1959      H1966   1.084       .  S
C1960      C1961   1.411       .  A
C1961      C1962   1.409       .  A
C1961      N1968   1.429       .  S
C1962      C1963   1.409       .  A
C1962      H1967   1.084       .  S
C1963      C1964   1.410       .  A
C1964      N1965   1.429       .  S
N1965      O1969   1.262       .  A
N1965      O1970   1.262       .  A
N1968      O1972   1.262       .  A
N1968      O1971   1.262       .  A
C1973      C1974   1.409       .  A
C1973      C1978   1.403       .  A
C1973      H1980   1.083       .  S
C1974      C1975   1.411       .  A
C1975      C1976   1.405       .  A
C1975      N1982   1.427       .  S
C1976      C1977   1.407       .  A
C1976      H1981   1.084       .  S
C1977      C1978   1.409       .  A
C1978      N1979   1.429       .  S
N1979      O1983   1.262   1_565  A
N1979      O1984   1.262   1_565  A
N1982      O1986   1.262       .  A
N1982      O1985   1.262       .  A
C1987      C1988   1.406       .  A
C1987      C1992   1.397       .  A
C1987      H1994   1.083       .  S
C1988      C1989   1.418       .  A
C1989      C1990   1.404       .  A
C1989      N1996   1.429       .  S
C1990      C1991   1.405       .  A
C1990      H1995   1.083       .  S
C1991      C1992   1.412       .  A
C1992      N1993   1.430       .  S
N1993      O1997   1.262       .  A
N1993      O1998   1.261       .  A
N1996      O2000   1.262       .  A
N1996      O1999   1.262       .  A
C2001      C2002   1.403       .  A
C2001      C2006   1.403       .  A
C2001      H2008   1.083       .  S
C2002      C2003   1.412       .  A
C2003      C2004   1.400       .  A
C2003      N2010   1.430       .  S
C2004      C2005   1.406       .  A
C2004      H2009   1.083       .  S
C2005      C2006   1.410       .  A
C2006      N2007   1.423       .  S
N2007      O2011   1.261       .  A
N2007      O2012   1.259       .  A
N2010      O2014   1.262       .  A
N2010      O2013   1.262       .  A
C2015      C2016   1.397       .  A
C2015      C2020   1.392       .  A
C2015      H2022   1.084       .  S
C2016      C2017   1.413       .  A
C2017      C2018   1.407       .  A
C2017      N2024   1.430       .  S
C2018      C2019   1.408       .  A
C2018      H2023   1.083       .  S
C2019      C2020   1.412       .  A
C2020      N2021   1.431       .  S
N2021      O2025   1.262       .  A
N2021      O2026   1.263       .  A
N2024      O2028   1.262       .  A
N2024      O2027   1.262       .  A
Fe2029     O2045   2.064       .  S
Fe2029     O2035   2.069       .  S
Fe2030     O2041   2.066       .  S
Fe2030     O2046   2.075       .  S
Fe2030     O2040   1.952   1_556  S
Fe2031     O2036   2.043   1_554  S
Fe2031     O2032   2.092   1_554  S
Fe2031     O2040   1.961       .  S
O2032      C2039   1.273       .  A
O2033      C2047   1.277       .  A
O2034      C2039   1.269       .  A
O2035      C2038   1.271       .  A
O2036      C2048   1.266       .  A
O2037      C2050   1.273       .  A
C2038      O2043   1.266       .  A
C2038      C2692   1.478       .  S
C2039      C2664   1.491       .  S
O2041      C2044   1.269       .  A
O2042      C2044   1.273       .  A
C2044      C2650   1.496       .  S
O2045      C2050   1.269       .  A
O2046      C2048   1.273       .  A
C2047      O2049   1.269       .  A
C2047      C2636   1.498       .  S
C2048      C2622   1.471       .  S
C2050      C2678   1.482       .  S
Fe2051     O2067   2.070       .  S
Fe2051     O2057   2.089       .  S
Fe2052     O2063   2.063       .  S
Fe2052     O2068   2.061       .  S
Fe2052     O2062   1.953       .  S
Fe2053     O2058   2.067       .  S
Fe2053     O2054   2.042       .  S
Fe2053     O2062   1.955       .  S
O2054      C2061   1.265       .  A
O2055      C2069   1.266       .  A
O2056      C2061   1.272       .  A
O2057      C2060   1.274       .  A
O2058      C2070   1.270       .  A
O2059      C2072   1.267       .  A
C2060      O2065   1.269       .  A
C2060      C2580   1.483       .  S
C2061      C2611   1.475       .  S
O2063      C2066   1.270       .  A
O2064      C2066   1.272       .  A
C2066      C2552   1.495       .  S
O2067      C2072   1.270       .  A
O2068      C2070   1.268       .  A
C2069      O2071   1.269       .  A
C2069      C2566   1.473       .  S
C2070      C2594   1.479       .  S
C2072      C2538   1.478       .  S
C2073      C2527   1.494       .  S
C2073      C2078   1.424   1_545  A
C2074      C2468   1.487       .  S
C2074      C4779   1.413       .  A
C2075      C2454   1.488       .  S
C2075      C4778   1.408       .  A
C2076      C2482   1.488       .  S
C2076      C4781   1.421       .  A
C2077      C2496   1.492       .  S
C2077      C4780   1.420       .  A
C2077      C2078   1.423       .  A
C2078      C2510   1.492       .  S
C2079      C2443   1.476       .  S
C2079      N2080   1.355       .  A
C2079      N2084   1.367   1_565  A
N2080      C2081   1.351   1_565  A
C2081      C2524   1.466       .  S
N2082      C2083   1.360       .  A
C2083      C2555   1.488       .  S
C2085      C2426   1.495       .  S
C2085      N2086   1.360       .  A
C2087      C2485   1.478       .  S
C2087      N2088   1.350   1_545  A
N2088      C2089   1.352       .  A
C2089      C2681   1.487       .  S
C2089      N2090   1.367   1_565  A
C2091      C2597   1.464       .  S
C2091      N2092   1.360       .  A
C2091      N2096   1.352       .  A
N2092      C2093   1.362       .  A
C2093      C2415   1.484       .  S
C2093      N2094   1.361       .  A
N2094      C2095   1.354       .  A
C2095      C2457   1.473       .  S
C2095      N2096   1.350       .  A
C2097      C2401   1.491       .  S
C2097      N2098   1.368       .  A
C2097      N2102   1.357       .  A
N2098      C4803   1.367       .  A
C2099      C2639   1.504       .  S
C2099      N4802   1.367       .  A
C2099      N2100   1.363       .  A
N2100      C4805   1.358       .  A
C2101      C2471   1.475       .  S
C2101      N4804   1.354       .  A
C2101      N2102   1.352       .  A
C2103      C2695   1.484       .  S
C2103      N2104   1.367       .  A
C2103      N2108   1.362       .  A
N2104      C2105   1.365       .  A
C2105      C2387   1.491       .  S
C2105      N2106   1.354       .  A
N2106      C2107   1.353       .  A
C2107      C2513   1.488       .  S
C2107      N2108   1.357       .  A
C2109      C2373   1.469       .  S
C2109      N2110   1.358       .  A
C2109      N4818   1.365   1_455  A
N2110      C4815   1.351       .  A
C2111      C2499   1.485       .  S
C2111      N4814   1.354       .  A
C2111      N2112   1.352       .  A
N2112      C2113   1.356       .  A
C2113      C2608   1.487       .  S
C2113      N2114   1.359       .  A
N2114      C4813   1.360       .  A
Fe2115     O2131   2.071       .  S
Fe2115     O2121   2.064       .  S
Fe2115     O2128   2.076       .  S
Fe2115     O2120   2.061       .  S
Fe2115     O2126   1.969       .  S
Fe2116     O2119   2.078       .  S
Fe2116     O2123   2.064       .  S
Fe2116     O2127   2.077       .  S
Fe2116     O2132   2.085       .  S
Fe2116     O2126   1.954       .  S
Fe2117     O2135   2.080       .  S
Fe2117     O2122   2.062       .  S
Fe2117     O2129   2.075       .  S
Fe2117     O2118   2.070       .  S
Fe2117     O2126   1.958       .  S
O2118      C2125   1.272       .  A
O2119      C2133   1.272       .  A
O2120      C2125   1.267       .  A
O2121      C2124   1.272       .  A
O2122      C2134   1.270       .  A
O2123      C2136   1.274       .  A
C2124      O2129   1.271       .  A
C2124      C2398   1.490       .  S
C2125      C2331   1.489       .  S
O2127      C2130   1.274       .  A
O2128      C2130   1.270       .  A
C2130      C2342   1.493       .  S
O2131      C2136   1.267       .  A
O2132      C2134   1.271       .  A
C2133      O2135   1.273       .  A
C2133      C2384   1.490       .  S
C2134      C2359   1.491       .  S
C2136      C2429   1.484       .  S
Fe2137     O2153   2.043       .  S
Fe2137     O2143   2.058       .  S
Fe2137     O2150   2.041       .  S
Fe2137     O2142   2.045       .  S
Fe2137     O2148   1.973       .  S
Fe2138     O2141   2.074       .  S
Fe2138     O2145   2.081       .  S
Fe2138     O2149   2.073       .  S
Fe2138     O2154   2.071       .  S
Fe2138     O2148   1.977       .  S
Fe2139     O2157   2.081       .  S
Fe2139     O2144   2.064       .  S
Fe2139     O2151   2.067       .  S
Fe2139     O2140   2.076       .  S
Fe2139     O2148   1.978       .  S
O2140      C2147   1.271       .  A
O2141      C2155   1.274       .  A
O2142      C2147   1.264       .  A
O2143      C2146   1.266       .  A
O2144      C2156   1.269       .  A
O2145      C2158   1.271       .  A
C2146      O2151   1.268       .  A
C2146      C2300   1.482       .  S
C2147      C2370   1.461       .  S
O2149      C2152   1.271       .  A
O2150      C2152   1.262       .  A
C2152      C2412   1.488       .  S
O2153      C2158   1.268       .  A
O2154      C2156   1.269       .  A
C2155      O2157   1.271       .  A
C2155      C2317   1.493       .  S
C2156      C2440   1.485       .  S
C2158      C2286   1.488       .  S
C2159      C2261   1.488       .  S
C2159      C2164   1.421       .  A
C2160      C2272   1.481       .  S
C2160      C4865   1.418       .  A
C2161      C2233   1.499       .  S
C2161      C4864   1.415       .  A
C2162      C2244   1.495       .  S
C2162      C4867   1.416       .  A
C2163      C2202   1.481       .  S
C2163      C4866   1.416       .  A
C2163      C2164   1.419   1_655  A
C2164      C2216   1.500       .  S
C2165      C2345   1.478       .  S
C2165      N2166   1.354       .  A
C2165      N2170   1.368       .  A
N2166      C2167   1.350       .  A
C2167      C2258   1.456       .  S
N2168      C2169   1.362       .  A
C2169      C2653   1.494       .  S
C2171      C2314   1.492       .  S
C2171      N2176   1.351       .  A
N2172      C2173   1.366       .  A
C2173      C2541   1.480       .  S
C2173      N2174   1.360       .  A
N2174      C2175   1.350       .  A
C2175      C2247   1.473       .  S
C2177      C2328   1.477       .  S
C2177      N2178   1.357       .  A
C2177      N2182   1.361       .  A
N2178      C2179   1.354       .  A
C2179      C2205   1.479       .  S
C2179      N4884   1.352       .  A
N2180      C4883   1.348       .  A
N2180      C2181   1.357       .  A
C2181      C2625   1.489       .  S
C2181      N4886   1.365       .  A
N2182      C4885   1.363       .  A
C2183      C2569   1.477       .  S
C2183      N2184   1.361       .  A
C2183      N2188   1.360       .  A
N2184      C2185   1.362       .  A
C2185      C2289   1.481       .  S
C2185      N2186   1.356       .  A
N2186      C2187   1.351       .  A
C2187      C2219   1.470       .  S
C2187      N2188   1.354       .  A
C2189      C2303   1.470       .  S
C2189      N2190   1.351       .  A
C2189      N2194   1.358   1_455  A
N2190      C2191   1.348   1_455  A
C2191      C2275   1.470       .  S
C2191      N4896   1.353       .  A
N2192      C4895   1.355       .  A
N2192      C2193   1.362       .  A
C2193      C2583   1.488       .  S
C2193      N4898   1.369       .  A
N2194      C4897   1.365       .  A
C2195      C2667   1.478       .  S
C2195      N2196   1.361       .  A
C2195      N2200   1.360       .  A
N2196      C2197   1.358       .  A
C2197      C2356   1.477       .  S
C2197      N2198   1.357       .  A
N2198      C2199   1.360       .  A
C2199      C2230   1.487       .  S
C2199      N2200   1.359       .  A
C2201      C4906   1.399       .  A
C2201      C2206   1.394       .  A
C2201      H2208   1.071       .  S
C2202      C4905   1.397   1_655  A
C2202      C2203   1.416       .  A
C2203      C2204   1.398       .  A
C2203      N2210   1.431       .  S
C2204      C4909   1.397   1_655  A
C2204      H2209   1.085       .  S
C2205      C4908   1.404       .  A
C2205      C2206   1.406       .  A
C2206      N2207   1.430       .  S
N2207      O2211   1.262       .  A
N2207      O2212   1.262       .  A
N2210      O2214   1.260   1_655  A
N2210      O2213   1.261       .  A
C2215      C2216   1.407       .  A
C2215      C2220   1.401       .  A
C2215      H2222   1.079       .  S
C2216      C2217   1.416       .  A
C2217      C2218   1.400       .  A
C2217      N2224   1.428       .  S
C2218      C2219   1.397       .  A
C2218      H2223   1.084       .  S
C2219      C2220   1.404       .  A
C2220      N2221   1.430       .  S
N2221      O2225   1.262       .  A
N2221      O2226   1.261       .  A
N2224      O2228   1.259       .  A
N2224      O2227   1.260       .  A
C2229      C2230   1.404       .  A
C2229      C2234   1.402       .  A
C2229      H2236   1.084       .  S
C2230      C2231   1.412       .  A
C2231      C2232   1.397       .  A
C2231      N2238   1.428       .  S
C2232      C2233   1.402       .  A
C2232      H2237   1.083       .  S
C2233      C2234   1.418       .  A
C2234      N2235   1.432       .  S
N2235      O2239   1.262       .  A
N2235      O2240   1.261       .  A
N2238      O2242   1.261       .  A
N2238      O2241   1.262       .  A
C2243      C2248   1.398       .  A
C2243      H2250   1.081       .  S
C2244      C2245   1.414       .  A
C2245      C2246   1.397       .  A
C2245      N2252   1.429       .  S
C2246      C2247   1.399       .  A
C2246      H2251   1.084       .  S
C2248      N2249   1.429       .  S
N2249      O2253   1.262   1_545  A
N2249      O2254   1.262       .  A
N2252      O2256   1.260       .  A
N2252      O2255   1.261       .  A
C2257      C2258   1.396       .  A
C2257      C2262   1.398       .  A
C2257      H2264   1.084       .  S
C2259      C2260   1.404       .  A
C2259      N2266   1.430       .  S
C2260      H2265   1.079       .  S
C2261      C2262   1.417       .  A
C2262      N2263   1.430       .  S
N2263      O2267   1.260       .  A
N2263      O2268   1.259       .  A
N2266      O2270   1.262       .  A
N2266      O2269   1.262   1_565  A
C2271      C2272   1.396   1_455  A
C2271      C2276   1.389       .  A
C2271      H2278   1.051       .  S
C2272      C4977   1.412       .  A
C2273      C4976   1.413       .  A
C2273      C2274   1.403       .  A
C2273      N2280   1.430       .  S
C2274      C4979   1.404       .  A
C2274      H2279   1.078       .  S
C2275      C4978   1.404       .  A
C2275      C2276   1.410   1_655  A
C2276      N2277   1.430       .  S
N2277      O2281   1.262       .  A
N2277      O2282   1.262       .  A
N2280      O2284   1.261       .  A
N2280      O2283   1.261       .  A
C2285      C2286   1.405       .  A
C2285      C2290   1.391       .  A
C2285      H2292   1.084       .  S
C2286      C2287   1.416       .  A
C2287      C2288   1.405       .  A
C2287      N2294   1.428       .  S
C2288      C2289   1.405       .  A
C2288      H2293   1.084       .  S
C2289      C2290   1.413       .  A
C2290      N2291   1.429       .  S
N2291      O2295   1.261       .  A
N2291      O2296   1.262       .  A
N2294      O2298   1.262       .  A
N2294      O2297   1.262       .  A
C2299      C2300   1.408       .  A
C2299      C2304   1.405       .  A
C2299      H2306   1.082       .  S
C2300      C2301   1.409       .  A
C2301      C2302   1.391       .  A
C2301      N2308   1.422       .  S
C2302      C2303   1.398       .  A
C2302      H2307   1.085       .  S
C2303      C2304   1.408       .  A
C2304      N2305   1.429       .  S
N2305      O2309   1.261   1_455  A
N2305      O2310   1.261   1_455  A
N2308      O2312   1.259       .  A
N2308      O2311   1.262       .  A
C2313      C2314   1.400       .  A
C2313      C2318   1.406       .  A
C2313      H2320   1.081       .  S
C2314      C2315   1.421       .  A
C2315      C2316   1.395       .  A
C2315      N2322   1.429       .  S
C2316      C2317   1.400       .  A
C2316      H2321   1.084       .  S
C2317      C2318   1.416       .  A
C2318      N2319   1.420       .  S
N2319      O2323   1.262       .  A
N2319      O2324   1.262       .  A
N2322      O2326   1.262       .  A
N2322      O2325   1.262       .  A
C2327      C2328   1.401       .  A
C2327      C2332   1.398       .  A
C2327      H2334   1.084       .  S
C2328      C2329   1.409       .  A
C2329      C2330   1.398       .  A
C2329      N2336   1.427       .  S
C2330      C2331   1.406       .  A
C2330      H2335   1.083       .  S
C2331      C2332   1.416       .  A
C2332      N2333   1.426       .  S
N2333      O2337   1.262       .  A
N2333      O2338   1.260       .  A
N2336      O2340   1.261       .  A
N2336      O2339   1.262       .  A
C2341      C2342   1.406       .  A
C2341      C2346   1.403       .  A
C2341      H2348   1.083       .  S
C2342      C2343   1.419       .  A
C2343      C2344   1.401       .  A
C2343      N2350   1.429       .  S
C2344      C2345   1.399       .  A
C2344      H2349   1.084       .  S
C2345      C2346   1.413       .  A
C2346      N2347   1.430       .  S
N2347      O2351   1.262       .  A
N2347      O2352   1.262       .  A
N2350      O2354   1.262       .  A
N2350      O2353   1.262       .  A
C2355      C2356   1.401       .  A
C2355      C2360   1.404       .  A
C2355      H2362   1.081       .  S
C2356      C2357   1.408       .  A
C2357      C2358   1.400       .  A
C2357      N2364   1.429       .  S
C2358      C2359   1.407       .  A
C2358      H2363   1.082       .  S
C2359      C2360   1.418       .  A
C2360      N2361   1.429       .  S
N2361      O2365   1.262       .  A
N2361      O2366   1.262       .  A
N2364      O2368   1.262       .  A
N2364      O2367   1.262       .  A
C2369      C2370   1.395       .  A
C2369      C2374   1.391       .  A
C2369      H2376   1.084       .  S
C2370      C2371   1.410       .  A
C2371      C2372   1.405       .  A
C2371      N2378   1.429       .  S
C2372      C2373   1.404       .  A
C2372      H2377   1.077       .  S
C2373      C2374   1.409       .  A
C2374      N2375   1.428       .  S
N2375      O2379   1.260   1_455  A
N2375      O2380   1.260       .  A
N2378      O2382   1.262       .  A
N2378      O2381   1.261       .  A
C2383      C2384   1.408       .  A
C2383      C2388   1.410       .  A
C2383      H2390   1.084       .  S
C2384      C2385   1.414       .  A
C2385      C2386   1.397       .  A
C2385      N2392   1.430       .  S
C2386      C2387   1.404       .  A
C2386      H2391   1.084       .  S
C2387      C2388   1.411       .  A
C2388      N2389   1.425       .  S
N2389      O2393   1.262       .  A
N2389      O2394   1.258       .  A
N2392      O2396   1.261       .  A
N2392      O2395   1.262       .  A
C2397      C2398   1.402       .  A
C2397      C2402   1.393       .  A
C2397      H2404   1.084       .  S
C2398      C2399   1.415       .  A
C2399      C2400   1.408       .  A
C2399      N2406   1.427       .  S
C2400      C2401   1.406       .  A
C2400      H2405   1.083       .  S
C2401      C2402   1.417       .  A
C2402      N2403   1.429       .  S
N2403      O2407   1.261       .  A
N2403      O2408   1.260       .  A
N2406      O2410   1.262       .  A
N2406      O2409   1.262       .  A
C2411      C2412   1.406       .  A
C2411      C2416   1.400       .  A
C2411      H2418   1.083       .  S
C2412      C2413   1.418       .  A
C2413      C2414   1.394       .  A
C2413      N2420   1.431       .  S
C2414      C2415   1.403       .  A
C2414      H2419   1.083       .  S
C2415      C2416   1.412       .  A
C2416      N2417   1.427       .  S
N2417      O2421   1.260       .  A
N2417      O2422   1.262       .  A
N2420      O2424   1.262       .  A
N2420      O2423   1.262       .  A
C2425      C2426   1.411       .  A
C2425      C2430   1.414       .  A
C2425      H2432   1.082       .  S
C2426      C2427   1.416       .  A
C2427      C2428   1.384       .  A
C2427      N2434   1.425       .  S
C2428      C2429   1.396       .  A
C2428      H2433   1.085       .  S
C2429      C2430   1.415       .  A
C2430      N2431   1.429       .  S
N2431      O2435   1.262       .  A
N2431      O2436   1.262       .  A
N2434      O2438   1.262       .  A
N2434      O2437   1.262       .  A
C2439      C2440   1.408       .  A
C2439      C2444   1.399       .  A
C2439      H2446   1.083       .  S
C2440      C2441   1.413       .  A
C2441      C2442   1.401       .  A
C2441      N2448   1.429       .  S
C2442      C2443   1.404       .  A
C2442      H2447   1.084       .  S
C2443      C2444   1.405       .  A
C2444      N2445   1.426       .  S
N2445      O2449   1.260   1_565  A
N2448      O2452   1.262       .  A
N2448      O2451   1.262       .  A
C2453      C2454   1.393       .  A
C2453      C2458   1.388       .  A
C2453      H2460   1.084       .  S
C2454      C2455   1.416       .  A
C2455      C2456   1.403       .  A
C2455      N2462   1.432       .  S
C2456      C2457   1.404       .  A
C2456      H2461   1.085       .  S
C2457      C2458   1.410       .  A
C2458      N2459   1.428       .  S
N2459      O2463   1.262       .  A
N2459      O2464   1.262       .  A
N2462      O2466   1.261       .  A
N2462      O2465   1.261       .  A
C2467      C5172   1.396   1_655  A
C2467      C2472   1.396   1_655  A
C2467      H2474   1.071       .  S
C2468      C5171   1.397       .  A
C2468      C2469   1.415       .  A
C2469      C2470   1.400       .  A
C2469      N2476   1.431       .  S
C2470      C2471   1.402       .  A
C2470      H2475   1.083       .  S
C2471      C5176   1.409       .  A
C2472      C5175   1.412       .  A
C2472      N2473   1.430   1_455  S
N2473      O2477   1.262       .  A
N2473      O2478   1.262   1_655  A
N2476      O2480   1.260       .  A
N2476      O2479   1.261       .  A
C2481      C2486   1.394       .  A
C2481      H2488   1.078       .  S
C2482      C2483   1.410       .  A
C2483      C2484   1.400       .  A
C2483      N2490   1.429       .  S
C2484      C2485   1.406   1_565  A
C2484      H2489   1.082       .  S
C2486      N2487   1.430       .  S
N2487      O2491   1.263       .  A
N2487      O2492   1.262       .  A
N2490      O2494   1.261   1_565  A
N2490      O2493   1.262       .  A
C2495      C2496   1.400       .  A
C2495      C2500   1.393       .  A
C2495      H2502   1.083       .  S
C2496      C5201   1.415       .  A
C2497      C5200   1.415   1_655  A
C2497      C2498   1.402       .  A
C2497      N2504   1.432       .  S
C2498      C5203   1.408   1_655  A
C2498      H2503   1.083       .  S
C2499      C5202   1.407       .  A
C2499      C2500   1.411       .  A
C2500      N2501   1.425       .  S
N2501      O2505   1.262       .  A
N2501      O2506   1.262       .  A
N2504      O2508   1.262       .  A
N2504      O2507   1.261       .  A
C2509      C2510   1.401       .  A
C2509      C2514   1.397       .  A
C2509      H2516   1.081       .  S
C2510      C2511   1.414       .  A
C2511      C2512   1.400       .  A
C2511      N2518   1.431       .  S
C2512      C2513   1.408       .  A
C2512      H2517   1.083       .  S
C2513      C2514   1.411       .  A
C2514      N2515   1.426       .  S
N2515      O2519   1.262       .  A
N2515      O2520   1.262       .  A
N2518      O2522   1.260       .  A
N2518      O2521   1.261       .  A
C2523      C2528   1.398       .  A
C2523      H2530   1.084       .  S
C2524      C2525   1.405       .  A
C2525      C2526   1.396       .  A
C2525      N2532   1.430       .  S
C2526      C2527   1.403       .  A
C2526      H2531   1.080       .  S
C2528      N2529   1.427       .  S
N2529      O2533   1.261       .  A
N2529      O2534   1.261       .  A
N2532      O2536   1.262   1_545  A
N2532      O2535   1.262       .  A
C2537      C2538   1.406       .  A
C2537      C2542   1.408       .  A
C2537      H2544   1.083       .  S
C2538      C2539   1.409       .  A
C2539      C2540   1.392       .  A
C2539      N2546   1.430       .  S
C2540      C2541   1.403       .  A
C2540      H2545   1.084       .  S
C2541      C2542   1.414       .  A
C2542      N2543   1.429       .  S
N2543      O2547   1.260       .  A
N2543      O2548   1.260       .  A
N2546      O2550   1.262       .  A
N2546      O2549   1.262       .  A
C2551      C2552   1.410       .  A
C2551      C2556   1.401       .  A
C2551      H2558   1.082       .  S
C2552      C2553   1.413       .  A
C2553      C2554   1.403       .  A
C2553      N2560   1.429       .  S
C2554      C2555   1.407       .  A
C2554      H2559   1.076       .  S
C2555      C2556   1.409       .  A
C2556      N2557   1.427       .  S
N2557      O2561   1.261       .  A
N2557      O2562   1.262       .  A
N2560      O2564   1.262       .  A
N2560      O2563   1.262       .  A
C2565      C2566   1.402       .  A
C2565      C2570   1.405       .  A
C2565      H2572   1.084       .  S
C2566      C2567   1.410       .  A
C2567      C2568   1.393       .  A
C2567      N2574   1.431       .  S
C2568      C2569   1.402       .  A
C2568      H2573   1.084       .  S
C2569      C2570   1.414       .  A
C2570      N2571   1.428       .  S
N2571      O2575   1.261       .  A
N2571      O2576   1.262       .  A
N2574      O2578   1.262       .  A
C2579      C2580   1.403       .  A
C2579      C2584   1.394       .  A
C2579      H2586   1.082       .  S
C2580      C2581   1.410       .  A
C2581      C2582   1.408       .  A
C2581      N2588   1.428       .  S
C2582      C2583   1.409       .  A
C2582      H2587   1.076       .  S
C2583      C2584   1.413       .  A
C2584      N2585   1.430       .  S
N2585      O2589   1.262       .  A
N2585      O5294   1.262       .  A
N2588      O2592   1.262       .  A
N2588      O2591   1.262       .  A
O2590      N5289   1.262       .  A
C2593      C2594   1.408       .  A
C2593      C2598   1.397       .  A
C2593      H2600   1.083       .  S
C2594      C2595   1.413       .  A
C2595      C2596   1.397       .  A
C2595      N2602   1.430       .  S
C2596      C2597   1.400       .  A
C2596      H2601   1.084       .  S
C2597      C2598   1.405       .  A
C2598      N2599   1.430       .  S
N2599      O2603   1.262       .  A
N2599      O2604   1.262       .  A
N2602      O2606   1.262       .  A
N2602      O2605   1.262       .  A
C2607      C2608   1.407       .  A
C2607      C2612   1.392       .  A
C2607      H2614   1.083       .  S
C2608      C2609   1.414       .  A
C2609      C2610   1.399       .  A
C2609      N2616   1.424       .  S
C2610      C2611   1.401       .  A
C2610      H2615   1.084       .  S
C2611      C2612   1.411       .  A
C2612      N2613   1.429       .  S
N2613      O2617   1.261       .  A
N2613      O2618   1.262       .  A
N2616      O2620   1.259       .  A
N2616      O5323   1.261       .  A
O2619      N5320   1.260       .  A
C2621      C2622   1.399       .  A
C2621      C2626   1.397       .  A
C2621      H2628   1.084       .  S
C2622      C2623   1.409       .  A
C2623      C2624   1.394       .  A
C2623      N2630   1.429       .  S
C2624      C2625   1.409       .  A
C2624      H2629   1.083       .  S
C2625      C2626   1.413       .  A
C2626      N2627   1.422       .  S
N2627      O2631   1.261       .  A
N2627      O5336   1.261       .  A
N2630      O2634   1.262       .  A
N2630      O2633   1.262       .  A
O2632      N5331   1.261       .  A
C2635      C2636   1.406       .  A
C2635      C2640   1.397       .  A
C2635      H2642   1.084       .  S
C2636      C2637   1.412       .  A
C2637      C2638   1.412       .  A
C2637      N2644   1.429       .  S
C2638      C2639   1.413       .  A
C2638      H2643   1.077       .  S
C2639      C2640   1.416       .  A
C2640      N2641   1.429       .  S
N2641      O2645   1.262       .  A
N2641      O2646   1.261       .  A
N2644      O2648   1.262       .  A
N2644      O2647   1.262       .  A
C2649      C2650   1.408       .  A
C2649      C2654   1.404       .  A
C2649      H2656   1.083       .  S
C2650      C2651   1.415       .  A
C2651      C2652   1.401       .  A
C2651      N2658   1.429       .  S
C2652      C2653   1.407       .  A
C2652      H2657   1.084       .  S
C2653      C2654   1.413       .  A
C2654      N2655   1.427       .  S
N2655      O2659   1.262   1_565  A
N2655      O2660   1.262       .  A
N2658      O2662   1.262       .  A
N2658      O2661   1.262       .  A
C2663      C2664   1.409       .  A
C2663      C2668   1.399       .  A
C2663      H2670   1.083       .  S
C2664      C2665   1.417       .  A
C2665      C2666   1.402       .  A
C2665      N2672   1.429       .  S
C2666      C2667   1.403       .  A
C2666      H2671   1.084       .  S
C2667      C2668   1.409       .  A
C2668      N2669   1.430       .  S
N2669      O2673   1.262       .  A
N2669      O2674   1.261       .  A
N2672      O2676   1.262       .  A
N2672      O2675   1.262       .  A
C2677      C2678   1.403       .  A
C2677      C2682   1.406       .  A
C2677      H2684   1.084       .  S
C2678      C2679   1.411       .  A
C2679      C2680   1.399       .  A
C2679      N2686   1.430       .  S
C2680      C2681   1.406       .  A
C2680      H2685   1.084       .  S
C2681      C2682   1.409       .  A
C2682      N2683   1.422       .  S
N2683      O2687   1.262       .  A
N2683      O2688   1.259       .  A
N2686      O2690   1.262       .  A
N2686      O2689   1.262       .  A
C2691      C2692   1.399       .  A
C2691      C2696   1.395       .  A
C2691      H2698   1.084       .  S
C2692      C2693   1.412       .  A
C2693      C2694   1.407       .  A
C2693      N2700   1.429       .  S
C2694      C2695   1.406       .  A
C2694      H2699   1.080       .  S
C2695      C2696   1.412       .  A
C2696      N2697   1.429       .  S
N2697      O2701   1.262       .  A
N2697      O2702   1.262       .  A
N2700      O2704   1.262       .  A
N2700      O2703   1.262       .  A
Fe2705     O2721   2.078       .  S
Fe2705     O2711   2.054       .  S
Fe2705     O3394   2.055   1_554  S
Fe2705     O3386   2.065   1_554  S
Fe2705     O3392   1.957       .  S
Fe2706     O3385   2.083       .  S
Fe2706     O3389   2.086       .  S
Fe2706     O2717   2.074       .  S
Fe2706     O2722   2.076       .  S
Fe2706     O2716   1.961       .  S
Fe2707     O3401   2.057       .  S
Fe2707     O2712   2.055       .  S
Fe2707     O3395   2.065       .  S
Fe2707     O2708   2.077       .  S
Fe2707     O2716   1.965       .  S
O2708      C2715   1.270       .  A
O2709     Fe3382   2.083       .  S
O2709      C2723   1.273       .  A
O2710     Fe3381   2.055       .  S
O2710      C2715   1.270       .  A
O2711      C2714   1.268       .  A
O2712      C2724   1.266       .  A
O2713     Fe3382   2.074       .  S
O2713      C2726   1.272       .  A
C2714      O2719   1.269       .  A
C2714      C3368   1.481       .  S
C2715      C3340   1.490       .  S
O2716     Fe3381   1.949       .  S
O2717      C2720   1.271       .  A
O2718     Fe3381   2.059       .  S
O2718      C2720   1.269       .  A
O2719     Fe3383   2.070       .  S
C2720      C3326   1.489       .  S
O2721      C2726   1.269       .  A
O2722      C2724   1.273       .  A
C2723      O2725   1.269       .  A
C2723      C3312   1.493       .  S
C2724      C3298   1.488       .  S
O2725     Fe3383   2.052       .  S
C2726      C3354   1.491       .  S
Fe2727     O2743   2.077       .  S
Fe2727     O2733   2.082       .  S
Fe2727     O3416   2.075       .  S
Fe2727     O3408   2.070       .  S
Fe2727     O3414   1.955       .  S
Fe2728     O3407   2.080       .  S
Fe2728     O3411   2.057       .  S
Fe2728     O2739   2.077   1_556  S
Fe2728     O2744   2.044   1_556  S
Fe2728     O2738   1.952   1_556  S
Fe2729     O3423   2.057   1_554  S
Fe2729     O2734   2.082       .  S
Fe2729     O3417   2.088   1_554  S
Fe2729     O2730   2.055       .  S
Fe2729     O2738   1.947       .  S
O2730      C2737   1.265       .  A
O2731     Fe3404   2.079       .  S
O2731      C2745   1.272       .  A
O2732     Fe3403   2.084       .  S
O2732      C2737   1.273       .  A
O2733      C2736   1.273       .  A
O2734      C2746   1.274       .  A
O2735     Fe3404   2.042       .  S
O2735      C2748   1.266       .  A
C2736      O2741   1.272       .  A
C2736      C3256   1.484       .  S
C2737      C3287   1.492       .  S
O2738     Fe3403   1.952       .  S
O2739      C2742   1.273       .  A
O2740     Fe3403   2.055       .  S
O2740      C2742   1.269       .  A
O2741     Fe3405   2.063       .  S
C2742      C3228   1.488       .  S
O2743      C2748   1.272       .  A
O2744      C2746   1.265       .  A
C2745      O2747   1.269       .  A
C2745      C3242   1.484       .  S
C2746      C3270   1.485       .  S
O2747     Fe3405   2.065       .  S
C2748      C3214   1.469       .  S
C2749      C3203   1.486       .  S
C2749      C4102   1.416   1_655  A
C2749      C2754   1.424       .  A
C2750      C3144   1.490       .  S
C2750      C4101   1.417   1_455  A
C2751      C3130   1.490       .  S
C2751      C4104   1.413   1_545  A
C2752      C3158   1.478       .  S
C2752      C4103   1.410       .  A
C2753      C3172   1.500       .  S
C2753      C2754   1.422       .  A
C2754      C3186   1.496       .  S
C2755      C3119   1.495       .  S
C2755      N2756   1.353       .  A
C2755      N2760   1.373       .  A
N2756      C2757   1.342       .  A
C2757      C3200   1.466       .  S
C2757      N4110   1.343       .  A
N2758      C4109   1.352       .  A
N2758      C2759   1.360       .  A
C2759      C3231   1.482       .  S
C2759      N4112   1.365       .  A
N2760      C4111   1.375       .  A
C2761      C3102   1.492       .  S
C2761      N2762   1.364       .  A
C2761      N4118   1.371   1_545  A
N2762      C4115   1.357   1_545  A
C2763      C3161   1.464       .  S
C2763      N4114   1.352       .  A
C2763      N2764   1.358       .  A
N2764      C2765   1.359       .  A
C2765      C3357   1.488       .  S
C2765      N2766   1.367       .  A
N2766      C4113   1.366       .  A
C2767      C3273   1.492       .  S
C2767      N2768   1.368       .  A
C2767      N2772   1.357       .  A
N2768      C2769   1.368       .  A
C2769      C3091   1.491       .  S
C2769      N2770   1.361       .  A
N2770      C2771   1.351       .  A
C2771      C3133   1.472       .  S
C2771      N2772   1.348       .  A
C2773      C3077   1.488       .  S
C2773      N2774   1.366   1_655  A
C2773      N2778   1.357       .  A
C2775      C3315   1.493       .  S
C2775      N2776   1.356       .  A
C2777      C3147   1.477       .  S
C2777      N2778   1.351   1_455  A
C2779      C3371   1.470       .  S
C2779      N2780   1.360       .  A
C2779      N2784   1.358       .  A
N2780      C2781   1.357       .  A
C2781      C3063   1.484       .  S
C2781      N2782   1.357       .  A
N2782      C2783   1.358       .  A
C2783      C3189   1.485       .  S
C2783      N2784   1.357       .  A
C2785      C3049   1.498       .  S
C2785      N2786   1.357       .  A
C2787      C3175   1.487   1_455  S
C2787      N2788   1.360   1_455  A
N2788      C2789   1.362       .  A
C2789      C3284   1.488       .  S
C2789      N2790   1.360   1_655  A
Fe2791     O2807   2.074       .  S
Fe2791     O2797   2.068       .  S
Fe2791     O2804   2.077       .  S
Fe2791     O2796   2.068       .  S
Fe2791     O2802   1.967       .  S
Fe2792     O2795   2.081       .  S
Fe2792     O2799   2.088       .  S
Fe2792     O2803   2.070       .  S
Fe2792     O2808   2.094       .  S
Fe2792     O2802   1.961       .  S
Fe2793     O2811   2.069       .  S
Fe2793     O2798   2.055       .  S
Fe2793     O2805   2.070       .  S
Fe2793     O2794   2.073       .  S
Fe2793     O2802   1.963       .  S
O2794      C2801   1.272       .  A
O2795      C2809   1.273       .  A
O2796      C2801   1.271       .  A
O2797      C2800   1.271       .  A
O2798      C2810   1.269       .  A
O2799      C2812   1.277       .  A
C2800      O2805   1.267       .  A
C2800      C3074   1.493       .  S
C2801      C3007   1.483       .  S
O2803      C2806   1.272       .  A
O2804      C2806   1.268       .  A
C2806      C3018   1.493       .  S
O2807      C2812   1.271       .  A
O2808      C2810   1.274       .  A
C2809      O2811   1.272       .  A
C2809      C3060   1.491       .  S
C2810      C3035   1.495       .  S
C2812      C3105   1.483       .  S
Fe2813     O2829   2.059       .  S
Fe2813     O2819   2.049       .  S
Fe2813     O2826   2.042       .  S
Fe2813     O2818   2.083       .  S
Fe2813     O2824   1.962       .  S
Fe2814     O2817   2.074       .  S
Fe2814     O2821   2.082       .  S
Fe2814     O2825   2.096       .  S
Fe2814     O2830   2.069       .  S
Fe2814     O2824   1.963       .  S
Fe2815     O2833   2.074       .  S
Fe2815     O2820   2.067       .  S
Fe2815     O2827   2.075       .  S
Fe2815     O2816   2.057       .  S
Fe2815     O2824   1.962       .  S
O2816      C2823   1.270       .  A
O2817      C2831   1.276       .  A
O2818      C2823   1.271       .  A
O2819      C2822   1.265       .  A
O2820      C2832   1.267       .  A
O2821      C2834   1.268       .  A
C2822      O2827   1.271       .  A
C2822      C2976   1.475       .  S
C2823      C3046   1.479       .  S
O2825      C2828   1.276       .  A
O2826      C2828   1.266       .  A
C2828      C3088   1.477       .  S
O2829      C2834   1.270       .  A
O2830      C2832   1.271       .  A
C2831      O2833   1.272       .  A
C2831      C2993   1.495       .  S
C2832      C3116   1.478       .  S
C2834      C2962   1.487       .  S
C2835      C2937   1.498       .  S
C2835      C4188   1.421   1_545  A
C2835      C2840   1.419       .  A
C2836      C2948   1.497       .  S
C2836      C4187   1.422       .  A
C2837      C2909   1.499       .  S
C2837      C4190   1.423       .  A
C2838      C2920   1.493       .  S
C2838      C4189   1.422   1_545  A
C2839      C2878   1.495       .  S
C2839      C2840   1.420       .  A
C2840      C2892   1.495       .  S
C2841      C3021   1.480       .  S
C2841      N2842   1.352       .  A
C2841      N2846   1.367       .  A
N2842      C2843   1.351       .  A
C2843      C2934   1.475       .  S
C2843      N4196   1.355   1_545  A
N2844      C4195   1.351       .  A
N2844      C2845   1.358       .  A
C2845      C3329   1.480       .  S
C2845      N4198   1.364       .  A
N2846      C4197   1.367   1_545  A
C2847      C2990   1.496       .  S
C2847      N4200   1.371       .  A
C2847      N2852   1.352       .  A
N2848      C4199   1.365   1_545  A
N2848      C2849   1.364       .  A
C2849      C3217   1.478       .  S
C2849      N2850   1.357       .  A
N2850      C2851   1.348       .  A
C2851      C2923   1.477       .  S
C2851      N4204   1.354   1_545  A
N2852      C4203   1.347       .  A
C2853      C3004   1.473       .  S
C2853      N2854   1.356       .  A
C2853      N2858   1.361       .  A
N2854      C2855   1.356       .  A
C2855      C2881   1.477       .  S
N2856      C2857   1.360       .  A
C2857      C3301   1.477       .  S
C2859      C3245   1.489       .  S
C2859      N2860   1.368       .  A
C2859      N2864   1.364       .  A
N2860      C2861   1.365       .  A
C2861      C2965   1.491       .  S
C2861      N2862   1.354       .  A
N2862      C2863   1.352       .  A
C2863      C2895   1.489       .  S
C2863      N2864   1.356       .  A
C2865      C2979   1.482       .  S
C2865      N2866   1.357       .  A
C2865      N2870   1.364       .  A
N2866      C2867   1.349       .  A
C2867      C2951   1.484       .  S
N2868      C2869   1.363       .  A
C2869      C3259   1.483       .  S
C2871      C3343   1.483       .  S
C2871      N2872   1.359       .  A
C2871      N2876   1.361       .  A
N2872      C2873   1.357       .  A
C2873      C3032   1.484       .  S
C2873      N2874   1.358       .  A
N2874      C2875   1.362       .  A
C2875      C2906   1.486       .  S
C2875      N2876   1.361       .  A
C2877      C2882   1.394       .  A
C2877      H2884   1.080       .  S
C2878      C2879   1.420       .  A
C2879      C2880   1.411       .  A
C2879      N2886   1.443       .  S
C2880      H2885   1.084       .  S
C2881      C2882   1.407       .  A
C2882      N2883   1.430       .  S
N2883      O2887   1.262   1_655  A
N2883      O2888   1.262       .  A
N2886      O2890   1.262       .  A
N2886      O2889   1.263       .  A
C2891      C2892   1.409       .  A
C2891      C2896   1.405       .  A
C2891      H2898   1.081       .  S
C2892      C2893   1.411       .  A
C2893      C2894   1.396       .  A
C2893      N2900   1.433       .  S
C2894      C2895   1.404       .  A
C2894      H2899   1.070       .  S
C2895      C2896   1.410       .  A
C2896      N2897   1.429       .  S
N2897      O2901   1.262       .  A
N2897      O2902   1.262       .  A
N2900      O2904   1.260       .  A
N2900      O2903   1.262       .  A
C2905      C2906   1.403       .  A
C2905      C2910   1.401       .  A
C2905      H2912   1.084       .  S
C2906      C2907   1.413       .  A
C2907      C2908   1.401       .  A
C2907      N2914   1.429       .  S
C2908      C2909   1.404       .  A
C2908      H2913   1.082       .  S
C2909      C2910   1.417       .  A
C2910      N2911   1.431       .  S
N2911      O2915   1.261       .  A
N2911      O2916   1.260       .  A
N2914      O2918   1.261       .  A
N2914      O2917   1.262       .  A
C2919      C4272   1.405       .  A
C2919      C2924   1.398       .  A
C2919      H2926   1.081       .  S
C2920      C4271   1.404       .  A
C2920      C2921   1.413       .  A
C2921      C2922   1.398       .  A
C2921      N2928   1.429   1_545  S
C2922      C2923   1.399       .  A
C2922      H2927   1.081   1_545  S
C2923      C4276   1.412       .  A
C2924      C4275   1.409       .  A
C2924      N2925   1.429       .  S
N2925      O2929   1.262       .  A
N2925      O2930   1.262       .  A
N2928      O2932   1.261       .  A
N2928      O2931   1.261   1_565  A
C2933      C2934   1.400       .  A
C2933      C2938   1.398       .  A
C2933      H2940   1.085       .  S
C2934      C4287   1.407   1_545  A
C2935      C4286   1.402       .  A
C2935      C2936   1.399       .  A
C2935      N2942   1.430       .  S
C2936      C4289   1.408       .  A
C2936      H2941   1.081       .  S
C2937      C4288   1.406   1_545  A
C2937      C2938   1.414       .  A
C2938      N2939   1.429       .  S
N2939      O2943   1.261   1_545  A
N2939      O2944   1.262       .  A
N2942      O2946   1.262       .  A
N2942      O2945   1.262       .  A
C2947      C2948   1.401       .  A
C2947      C2952   1.400       .  A
C2947      H2954   1.008       .  S
C2949      C2950   1.405       .  A
C2949      N2956   1.430       .  S
C2950      H2955   1.077       .  S
C2951      C2952   1.412       .  A
C2952      N2953   1.430       .  S
N2953      O2957   1.262       .  A
N2953      O2958   1.262       .  A
N2956      O2960   1.261       .  A
N2956      O2959   1.262   1_655  A
C2961      C2962   1.397       .  A
C2961      C2966   1.387       .  A
C2961      H2968   1.076       .  S
C2962      C2963   1.415       .  A
C2963      C2964   1.414       .  A
C2963      N2970   1.428       .  S
C2964      C2965   1.410       .  A
C2964      H2969   1.081       .  S
C2965      C2966   1.417       .  A
C2966      N2967   1.429       .  S
N2967      O2971   1.262       .  A
N2967      O2972   1.262       .  A
N2970      O2974   1.262       .  A
N2970      O2973   1.262       .  A
C2975      C2976   1.406       .  A
C2975      C2980   1.406       .  A
C2975      H2982   1.083       .  S
C2976      C2977   1.407       .  A
C2977      C2978   1.389       .  A
C2977      N2984   1.428       .  S
C2978      C2979   1.404       .  A
C2978      H2983   1.082       .  S
C2979      C2980   1.414       .  A
C2980      N2981   1.428       .  S
N2981      O2985   1.261       .  A
N2981      O2986   1.260       .  A
N2984      O2988   1.262       .  A
N2984      O2987   1.261       .  A
C2989      C2990   1.406       .  A
C2989      C2994   1.408       .  A
C2989      H2996   1.084       .  S
C2990      C2991   1.424       .  A
C2991      C2992   1.392       .  A
C2991      N2998   1.432       .  S
C2992      C2993   1.403       .  A
C2992      H2997   1.084       .  S
C2993      C2994   1.418       .  A
C2994      N2995   1.428       .  S
N2995      O2999   1.262       .  A
N2995      O3000   1.262       .  A
N2998      O3002   1.262       .  A
N2998      O3001   1.262       .  A
C3003      C3004   1.401       .  A
C3003      C3008   1.400       .  A
C3003      H3010   1.084       .  S
C3004      C3005   1.410       .  A
C3005      C3006   1.399       .  A
C3005      N3012   1.428       .  S
C3006      C3007   1.404       .  A
C3006      H3011   1.084       .  S
C3007      C3008   1.412       .  A
C3008      N3009   1.427       .  S
N3009      O3013   1.261       .  A
N3009      O3014   1.262       .  A
N3012      O3016   1.262       .  A
N3012      O3015   1.262   1_655  A
C3017      C3018   1.405       .  A
C3017      C3022   1.398       .  A
C3017      H3024   1.083       .  S
C3018      C3019   1.421       .  A
C3019      C3020   1.404       .  A
C3019      N3026   1.429       .  S
C3020      C3021   1.401       .  A
C3020      H3025   1.084       .  S
C3021      C3022   1.412       .  A
C3022      N3023   1.430       .  S
N3023      O3027   1.262       .  A
N3023      O3028   1.262       .  A
N3026      O3030   1.262       .  A
N3026      O3029   1.262       .  A
C3031      C3032   1.403       .  A
C3031      C3036   1.402       .  A
C3031      H3038   1.084       .  S
C3032      C3033   1.410       .  A
C3033      C3034   1.402       .  A
C3033      N3040   1.430       .  S
C3034      C3035   1.410       .  A
C3034      H3039   1.083       .  S
C3035      C3036   1.416       .  A
C3036      N3037   1.428       .  S
N3037      O3041   1.262       .  A
N3037      O3042   1.261       .  A
N3040      O3044   1.262       .  A
N3040      O3043   1.262       .  A
C3045      C3046   1.394       .  A
C3045      C3050   1.390       .  A
C3045      H3052   1.084       .  S
C3046      C3047   1.411       .  A
C3047      C3048   1.410       .  A
C3047      N3054   1.428       .  S
C3048      C3049   1.411       .  A
C3048      H3053   1.083       .  S
C3049      C3050   1.425       .  A
C3050      N3051   1.430       .  S
N3051      O3055   1.261       .  A
N3051      O3056   1.262       .  A
N3054      O3058   1.262       .  A
N3054      O3057   1.262       .  A
C3059      C3060   1.408       .  A
C3059      C3064   1.402       .  A
C3059      H3066   1.084       .  S
C3060      C3061   1.416       .  A
C3061      C3062   1.403       .  A
C3061      N3068   1.428       .  S
C3062      C3063   1.402       .  A
C3062      H3067   1.082       .  S
C3063      C3064   1.411       .  A
C3064      N3065   1.432       .  S
N3065      O3069   1.262       .  A
N3065      O3070   1.262       .  A
N3068      O3072   1.262       .  A
N3068      O3071   1.260       .  A
C3073      C3074   1.403       .  A
C3073      C3078   1.393       .  A
C3073      H3080   1.083       .  S
C3074      C3075   1.418       .  A
C3075      C3076   1.408       .  A
C3075      N3082   1.428       .  S
C3076      C3077   1.405       .  A
C3076      H3081   1.083       .  S
C3077      C3078   1.416       .  A
C3078      N3079   1.430       .  S
N3079      O3083   1.261       .  A
N3079      O3084   1.261       .  A
N3082      O3086   1.262       .  A
N3082      O3085   1.262       .  A
C3087      C3088   1.400       .  A
C3087      C3092   1.406       .  A
C3087      H3094   1.084       .  S
C3088      C3089   1.411       .  A
C3089      C3090   1.393       .  A
C3089      N3096   1.429       .  S
C3090      C3091   1.405       .  A
C3090      H3095   1.083       .  S
C3091      C3092   1.415       .  A
C3092      N3093   1.424       .  S
N3093      O3097   1.262       .  A
N3093      O3098   1.260       .  A
N3096      O3100   1.261       .  A
N3096      O3099   1.262       .  A
C3101      C3102   1.410       .  A
C3101      C3106   1.412       .  A
C3101      H3108   1.081       .  S
C3102      C3103   1.412       .  A
C3103      C3104   1.396       .  A
C3103      N3110   1.429       .  S
C3104      C3105   1.399       .  A
C3104      H3109   1.084       .  S
C3105      C3106   1.413       .  A
C3106      N3107   1.429       .  S
N3107      O3111   1.262       .  A
N3107      O3112   1.262       .  A
N3110      O3114   1.261       .  A
N3110      O3113   1.262   1_545  A
C3115      C3116   1.406       .  A
C3115      C3120   1.409       .  A
C3115      H3122   1.084       .  S
C3116      C3117   1.406       .  A
C3117      C3118   1.392       .  A
C3117      N3124   1.430       .  S
C3118      C3119   1.412       .  A
C3118      H3123   1.083       .  S
C3119      C3120   1.411       .  A
C3120      N3121   1.423       .  S
N3121      O3125   1.262       .  A
N3121      O4478   1.259       .  A
N3124      O3128   1.262       .  A
N3124      O3127   1.262       .  A
O3126      N4473   1.262   1_545  A
C3129      C3130   1.396       .  A
C3129      C3134   1.394       .  A
C3129      H3136   1.073       .  S
C3130      C3131   1.416       .  A
C3131      C3132   1.404       .  A
C3131      N3138   1.431       .  S
C3132      C3133   1.402       .  A
C3132      H3137   1.083       .  S
C3133      C3134   1.406       .  A
C3134      N3135   1.428       .  S
N3135      O3139   1.262       .  A
N3135      O3140   1.262       .  A
N3138      O3142   1.260       .  A
N3138      O3141   1.261       .  A
C3143      C3148   1.392       .  A
C3143      H3150   1.075       .  S
C3144      C3145   1.417       .  A
C3145      C3146   1.399       .  A
C3145      N3152   1.432       .  S
C3146      C3147   1.400       .  A
C3146      H3151   1.083       .  S
C3148      N3149   1.429       .  S
N3149      O3153   1.261       .  A
N3149      O3154   1.262       .  A
N3152      O3156   1.261   1_455  A
N3152      O3155   1.260       .  A
C3157      C4510   1.400       .  A
C3157      C3162   1.399       .  A
C3157      H3164   1.080       .  S
C3158      C4509   1.401       .  A
C3158      C3159   1.417       .  A
C3159      C3160   1.403       .  A
C3159      N3166   1.445       .  S
C3160      C3161   1.400       .  A
C3160      H3165   1.084       .  S
C3161      C4514   1.405       .  A
C3162      C4513   1.408       .  A
C3162      N3163   1.427       .  S
N3163      O3167   1.261   1_565  A
N3163      O3168   1.262       .  A
N3166      O3170   1.262       .  A
N3166      O3169   1.263       .  A
C3171      C3172   1.402   1_455  A
C3171      C3176   1.396       .  A
C3171      H3178   1.083       .  S
C3173      C3174   1.398       .  A
C3173      N3180   1.430       .  S
C3174      H3179   1.084       .  S
C3175      C3176   1.413   1_655  A
C3176      N3177   1.429       .  S
N3177      O3181   1.262       .  A
N3177      O3182   1.262       .  A
N3180      O3184   1.260       .  A
N3180      O3183   1.262       .  A
C3185      C3186   1.403       .  A
C3185      C3190   1.397       .  A
C3185      H3192   1.082       .  S
C3186      C3187   1.416       .  A
C3187      C3188   1.400       .  A
C3187      N3194   1.432       .  S
C3188      C3189   1.404       .  A
C3188      H3193   1.083       .  S
C3189      C3190   1.413       .  A
C3190      N3191   1.428       .  S
N3191      O3195   1.262       .  A
N3191      O3196   1.262       .  A
N3194      O3198   1.261       .  A
N3194      O3197   1.263       .  A
C3199      C4552   1.401       .  A
C3199      C3204   1.399   1_545  A
C3199      H3206   1.083   1_545  S
C3200      C4551   1.402       .  A
C3200      C3201   1.407       .  A
C3201      C3202   1.392       .  A
C3201      N3208   1.429       .  S
C3202      C3203   1.402       .  A
C3202      H3207   1.078       .  S
C3203      C4556   1.411       .  A
C3204      C4555   1.411   1_565  A
C3204      N3205   1.427       .  S
N3205      O3209   1.261   1_565  A
N3205      O3210   1.262       .  A
N3208      O3212   1.262       .  A
N3208      O3211   1.262       .  A
C3213      C3214   1.402       .  A
C3213      C3218   1.400       .  A
C3213      H3220   1.084       .  S
C3214      C3215   1.408       .  A
C3215      C3216   1.391       .  A
C3215      N3222   1.430       .  S
C3216      C3217   1.404       .  A
C3216      H3221   1.083       .  S
C3217      C3218   1.411       .  A
C3218      N3219   1.423       .  S
N3219      O3223   1.258       .  A
N3219      O3224   1.260       .  A
N3222      O3226   1.262       .  A
N3222      O3225   1.262       .  A
C3227      C3228   1.409       .  A
C3227      C3232   1.403       .  A
C3227      H3234   1.083       .  S
C3228      C3229   1.414       .  A
C3229      C3230   1.395       .  A
C3229      N3236   1.429       .  S
C3230      C3231   1.403       .  A
C3230      H3235   1.081       .  S
C3231      C3232   1.411       .  A
C3232      N3233   1.427       .  S
N3233      O3237   1.261       .  A
N3233      O3238   1.262   1_545  A
N3236      O3240   1.262       .  A
N3236      O3239   1.262       .  A
C3241      C3242   1.403       .  A
C3241      C3246   1.405       .  A
C3241      H3248   1.084       .  S
C3242      C3243   1.412       .  A
C3243      C3244   1.399       .  A
C3243      N3250   1.429       .  S
C3244      C3245   1.405       .  A
C3244      H3249   1.084       .  S
C3245      C3246   1.414       .  A
C3246      N3247   1.426       .  S
N3247      O3251   1.261       .  A
N3247      O3252   1.261       .  A
N3250      O3254   1.262       .  A
N3250      O3929   1.262       .  A
O3253      N3926   1.262       .  A
C3255      C3256   1.405       .  A
C3255      C3260   1.394       .  A
C3255      H3262   1.084       .  S
C3256      C3257   1.411       .  A
C3257      C3258   1.406       .  A
C3257      N3264   1.427       .  S
C3258      C3259   1.408       .  A
C3258      H3263   1.083       .  S
C3259      C3260   1.411       .  A
C3260      N3261   1.429       .  S
N3261      O3265   1.262       .  A
N3264      O3268   1.262       .  A
N3264      O3267   1.262       .  A
C3269      C3270   1.403       .  A
C3269      C3274   1.400       .  A
C3269      H3276   1.084       .  S
C3270      C3271   1.415       .  A
C3271      C3272   1.395       .  A
C3271      N3278   1.430       .  S
C3272      C3273   1.408       .  A
C3272      H3277   1.083       .  S
C3273      C3274   1.411       .  A
C3274      N3275   1.421       .  S
N3275      O3279   1.261       .  A
N3275      O3280   1.260       .  A
N3278      O3282   1.262       .  A
N3278      O3281   1.262       .  A
C3283      C3284   1.403       .  A
C3283      C3288   1.402       .  A
C3283      H3290   1.084       .  S
C3284      C3285   1.413       .  A
C3285      C3286   1.400       .  A
C3285      N3292   1.426       .  S
C3286      C3287   1.405       .  A
C3286      H3291   1.084       .  S
C3287      C3288   1.417       .  A
C3288      N3289   1.429       .  S
N3289      O3293   1.262       .  A
N3289      O3294   1.262       .  A
N3292      O3296   1.262   1_655  A
C3297      C3298   1.406       .  A
C3297      C3302   1.398       .  A
C3297      H3304   1.083       .  S
C3298      C3299   1.417       .  A
C3299      C3300   1.399       .  A
C3299      N3306   1.429       .  S
C3300      C3301   1.402       .  A
C3300      H3305   1.084       .  S
C3301      C3302   1.408       .  A
C3302      N3303   1.426       .  S
N3303      O3307   1.261       .  A
N3306      O3310   1.262       .  A
N3306      O3309   1.262       .  A
C3311      C3312   1.405       .  A
C3311      C3316   1.399       .  A
C3311      H3318   1.084       .  S
C3312      C3313   1.414       .  A
C3313      C3314   1.405       .  A
C3313      N3320   1.429       .  S
C3314      C3315   1.405       .  A
C3314      H3319   1.080       .  S
C3315      C3316   1.418       .  A
C3316      N3317   1.430       .  S
N3317      O3321   1.262       .  A
N3317      O3322   1.262       .  A
N3320      O3324   1.262       .  A
N3320      O3323   1.262       .  A
C3325      C3326   1.409       .  A
C3325      C3330   1.400       .  A
C3325      H3332   1.083       .  S
C3326      C3327   1.410       .  A
C3327      C3328   1.397       .  A
C3327      N3334   1.426       .  S
C3328      C3329   1.405       .  A
C3328      H3333   1.084       .  S
C3329      C3330   1.410       .  A
C3330      N3331   1.428       .  S
N3331      O3335   1.262       .  A
N3331      O3336   1.262       .  A
N3334      O3338   1.261       .  A
N3334      O3337   1.262       .  A
C3339      C3340   1.406       .  A
C3339      C3344   1.396       .  A
C3339      H3346   1.083       .  S
C3340      C3341   1.417       .  A
C3341      C3342   1.401       .  A
C3341      N3348   1.429       .  S
C3342      C3343   1.405       .  A
C3342      H3347   1.083       .  S
C3343      C3344   1.410       .  A
C3344      N3345   1.428       .  S
N3345      O3349   1.261       .  A
N3345      O3350   1.261       .  A
N3348      O3352   1.262       .  A
N3348      O3351   1.262       .  A
C3353      C3354   1.402       .  A
C3353      C3358   1.403       .  A
C3353      H3360   1.084       .  S
C3354      C3355   1.416       .  A
C3355      C3356   1.405       .  A
C3355      N3362   1.428       .  S
C3356      C3357   1.401       .  A
C3356      H3361   1.082       .  S
C3357      C3358   1.412       .  A
C3358      N3359   1.424       .  S
N3359      O3363   1.261       .  A
N3359      O3364   1.261       .  A
N3362      O3366   1.262       .  A
N3362      O3365   1.262       .  A
C3367      C3368   1.406       .  A
C3367      C3372   1.398       .  A
C3367      H3374   1.083       .  S
C3368      C3369   1.415       .  A
C3369      C3370   1.398       .  A
C3369      N3376   1.430       .  S
C3370      C3371   1.399       .  A
C3370      H3375   1.081       .  S
C3371      C3372   1.407       .  A
C3372      N3373   1.428       .  S
N3373      O3377   1.261       .  A
N3373      O3378   1.261       .  A
N3376      O3380   1.262       .  A
N3376      O3379   1.262       .  A
Fe3381     O3397   2.067       .  S
Fe3381     O3387   2.058       .  S
Fe3382     O3393   2.086   1_554  S
Fe3382     O3398   2.065   1_554  S
Fe3382     O3392   1.958       .  S
Fe3383     O3388   2.057   1_554  S
Fe3383     O3384   2.059   1_554  S
Fe3383     O3392   1.972       .  S
O3384      C3391   1.265       .  A
O3385      C3399   1.273       .  A
O3386      C3391   1.272       .  A
O3387      C3390   1.269       .  A
O3388      C3400   1.266       .  A
O3389      C3402   1.274       .  A
C3390      O3395   1.266       .  A
C3390      C4044   1.473       .  S
C3391      C4016   1.482       .  S
O3393      C3396   1.274       .  A
O3394      C3396   1.269       .  A
C3396      C4002   1.490       .  S
O3397      C3402   1.270       .  A
O3398      C3400   1.271       .  A
C3399      O3401   1.271       .  A
C3399      C3988   1.493       .  S
C3400      C3974   1.481       .  S
C3402      C4030   1.486       .  S
Fe3403     O3419   2.084   1_554  S
Fe3403     O3409   2.077   1_554  S
Fe3404     O3415   2.068       .  S
Fe3404     O3420   2.034       .  S
Fe3404     O3414   1.947       .  S
Fe3405     O3410   2.075       .  S
Fe3405     O3406   2.060       .  S
Fe3405     O3414   1.949       .  S
O3406      C3413   1.270       .  A
O3407      C3421   1.272       .  A
O3408      C3413   1.271       .  A
O3409      C3412   1.273       .  A
O3410      C3422   1.272       .  A
O3411      C3424   1.268       .  A
C3412      O3417   1.278       .  A
C3412      C3932   1.491       .  S
C3413      C3963   1.485       .  S
O3415      C3418   1.271       .  A
O3416      C3418   1.271       .  A
C3418      C3904   1.493       .  S
O3419      C3424   1.272       .  A
O3420      C3422   1.263       .  A
C3421      O3423   1.267       .  A
C3421      C3918   1.468       .  S
C3422      C3946   1.472       .  S
C3424      C3890   1.481       .  S
C3425      C3879   1.491       .  S
C3425      C4778   1.415   1_655  A
C3425      C3430   1.426       .  A
C3426      C3820   1.488       .  S
C3426      C4777   1.415   1_445  A
C3427      C3806   1.495       .  S
C3427      C4780   1.414   1_545  A
C3428      C3834   1.494       .  S
C3428      C4779   1.411       .  A
C3429      C3848   1.494       .  S
C3429      C3430   1.423   1_455  A
C3430      C3862   1.492       .  S
C3431      C3795   1.474       .  S
C3431      N3432   1.352       .  A
C3431      N3436   1.370       .  A
N3432      C3433   1.347       .  A
C3433      C3876   1.468       .  S
C3433      N4786   1.350       .  A
N3434      C4785   1.350       .  A
N3434      C3435   1.357       .  A
C3435      C3907   1.495       .  S
C3435      N4788   1.372       .  A
N3436      C4787   1.368       .  A
C3437      C3778   1.489       .  S
C3437      N3438   1.355       .  A
C3437      N4794   1.368       .  A
N3438      C4791   1.351   1_545  A
C3439      C3837   1.477       .  S
C3439      N4790   1.354       .  A
C3439      N3440   1.352       .  A
N3440      C3441   1.355       .  A
C3441      C4033   1.493       .  S
C3441      N3442   1.368       .  A
N3442      C4789   1.371       .  A
C3443      C3949   1.486       .  S
C3443      N3444   1.360       .  A
C3443      N3448   1.358       .  A
N3444      C3445   1.360       .  A
C3445      C3767   1.471       .  S
C3445      N3446   1.361       .  A
N3446      C3447   1.355       .  A
C3447      C3809   1.478       .  S
C3447      N3448   1.351       .  A
C3449      C3753   1.488       .  S
C3449      N3450   1.365       .  A
C3449      N3454   1.360       .  A
C3451      C3991   1.498       .  S
C3451      N3452   1.358       .  A
C3453      C3823   1.476       .  S
C3453      N3454   1.354   1_455  A
C3455      C4047   1.479       .  S
C3455      N3456   1.358       .  A
C3455      N3460   1.363       .  A
N3456      C3457   1.355       .  A
C3457      C3739   1.465       .  S
C3457      N3458   1.353       .  A
N3458      C3459   1.358       .  A
C3459      C3865   1.493       .  S
C3459      N3460   1.362       .  A
C3461      C3725   1.469       .  S
C3461      N3462   1.357       .  A
C3463      C3851   1.479       .  S
C3463      N3464   1.352   1_455  A
N3464      C3465   1.357       .  A
C3465      C3960   1.491       .  S
C3465      N3466   1.361   1_655  A
Fe3467     O3483   2.059       .  S
Fe3467     O3473   2.035       .  S
Fe3467     O3480   2.045       .  S
Fe3467     O3472   2.061       .  S
Fe3467     O3478   1.969       .  S
Fe3468     O3471   2.081       .  S
Fe3468     O3475   2.059       .  S
Fe3468     O3479   2.080       .  S
Fe3468     O3484   2.062       .  S
Fe3468     O3478   1.968       .  S
Fe3469     O3487   2.063       .  S
Fe3469     O3474   2.068       .  S
Fe3469     O3481   2.080       .  S
Fe3469     O3470   2.065       .  S
Fe3469     O3478   1.969       .  S
O3470      C3477   1.271       .  A
O3471      C3485   1.270       .  A
O3472      C3477   1.269       .  A
O3473      C3476   1.265       .  A
O3474      C3486   1.272       .  A
O3475      C3488   1.272       .  A
C3476      O3481   1.268       .  A
C3476      C3750   1.487       .  S
C3477      C3683   1.479       .  S
O3479      C3482   1.272       .  A
O3480      C3482   1.262       .  A
C3482      C3694   1.480       .  S
O3483      C3488   1.267       .  A
O3484      C3486   1.269       .  A
C3485      O3487   1.268       .  A
C3485      C3736   1.474       .  S
C3486      C3711   1.477       .  S
C3488      C3781   1.485       .  S
Fe3489     O3505   2.060       .  S
Fe3489     O3495   2.046       .  S
Fe3489     O3502   2.039       .  S
Fe3489     O3494   2.070       .  S
Fe3489     O3500   1.962       .  S
Fe3490     O3493   2.089       .  S
Fe3490     O3497   2.075       .  S
Fe3490     O3501   2.087       .  S
Fe3490     O3506   2.067       .  S
Fe3490     O3500   1.964       .  S
Fe3491     O3509   2.072       .  S
Fe3491     O3496   2.058       .  S
Fe3491     O3503   2.077       .  S
Fe3491     O3492   2.051       .  S
Fe3491     O3500   1.957       .  S
O3492      C3499   1.270       .  A
O3493      C3507   1.278       .  A
O3494      C3499   1.268       .  A
O3495      C3498   1.265       .  A
O3496      C3508   1.267       .  A
O3497      C3510   1.269       .  A
C3498      O3503   1.271       .  A
C3498      C3652   1.472       .  S
C3499      C3722   1.483       .  S
O3501      C3504   1.276       .  A
O3502      C3504   1.264       .  A
C3504      C3764   1.483       .  S
O3505      C3510   1.270       .  A
O3506      C3508   1.267       .  A
C3507      O3509   1.274       .  A
C3507      C3669   1.489       .  S
C3508      C3792   1.484       .  S
C3510      C3638   1.494       .  S
C3511      C3613   1.485   1_545  S
C3511      C4864   1.419   1_545  A
C3511      C3516   1.421       .  A
C3512      C3624   1.493       .  S
C3512      C4863   1.421       .  A
C3513      C3585   1.485       .  S
C3513      C4866   1.418       .  A
C3514      C3596   1.495       .  S
C3514      C4865   1.417   1_545  A
C3515      C3554   1.499       .  S
C3515      C3516   1.419       .  A
C3516      C3568   1.502       .  S
C3517      C3697   1.478       .  S
C3517      N3518   1.348       .  A
C3517      N3522   1.368   1_545  A
N3518      C3519   1.346   1_545  A
C3519      C3610   1.462       .  S
C3519      N4872   1.350       .  A
N3520      C4871   1.350       .  A
N3520      C3521   1.359       .  A
C3521      C4005   1.495       .  S
C3521      N4874   1.370       .  A
N3522      C4873   1.367       .  A
C3523      C3666   1.484       .  S
C3523      N4876   1.366       .  A
C3523      N3528   1.358       .  A
N3524      C4875   1.370   1_545  A
N3524      C3525   1.370       .  A
C3525      C3893   1.489       .  S
C3525      N3526   1.359       .  A
N3526      C3527   1.350       .  A
C3527      C3599   1.478       .  S
C3527      N4880   1.352   1_545  A
N3528      C4879   1.353       .  A
C3529      C3680   1.477       .  S
C3529      N3530   1.358       .  A
C3529      N3534   1.360       .  A
N3530      C3531   1.355       .  A
C3531      C3557   1.475   1_655  S
N3532      C3533   1.362       .  A
C3533      C3977   1.477       .  S
C3535      C3921   1.476       .  S
C3535      N3536   1.365       .  A
C3535      N3540   1.361       .  A
N3536      C3537   1.365       .  A
C3537      C3641   1.495       .  S
C3537      N3538   1.354       .  A
N3538      C3539   1.353       .  A
C3539      C3571   1.490       .  S
C3539      N3540   1.357       .  A
C3541      C3655   1.483       .  S
C3541      N3542   1.357       .  A
C3541      N3546   1.366       .  A
N3542      C3543   1.349       .  A
C3543      C3627   1.482       .  S
N3544      C3545   1.361       .  A
C3545      C3935   1.488       .  S
C3547      C4019   1.483       .  S
C3547      N3548   1.364       .  A
C3547      N3552   1.357       .  A
N3548      C3549   1.362       .  A
C3549      C3708   1.473       .  S
C3549      N3550   1.354       .  A
N3550      C3551   1.350       .  A
C3551      C3582   1.462       .  S
C3551      N3552   1.351       .  A
C3553      C3558   1.394       .  A
C3553      H3560   1.079       .  S
C3554      C3555   1.418       .  A
C3555      C3556   1.410       .  A
C3555      N3562   1.440       .  S
C3556      H3561   1.084       .  S
C3557      C3558   1.405   1_455  A
C3558      N3559   1.430       .  S
N3559      O3563   1.262   1_655  A
N3559      O3564   1.262       .  A
N3562      O3566   1.263       .  A
N3562      O3565   1.263       .  A
C3567      C3568   1.410       .  A
C3567      C3572   1.404       .  A
C3567      H3574   1.082       .  S
C3568      C3569   1.415       .  A
C3569      C3570   1.398       .  A
C3569      N3576   1.433       .  S
C3570      C3571   1.404       .  A
C3570      H3575   1.079       .  S
C3571      C3572   1.411       .  A
C3572      N3573   1.429       .  S
N3573      O3577   1.262       .  A
N3573      O3578   1.262       .  A
N3576      O3580   1.261       .  A
N3576      O3579   1.263       .  A
C3581      C3582   1.400       .  A
C3581      C3586   1.400       .  A
C3581      H3588   1.084       .  S
C3582      C3583   1.404       .  A
C3583      C3584   1.390       .  A
C3583      N3590   1.429       .  S
C3584      C3585   1.398       .  A
C3584      H3589   1.078       .  S
C3585      C3586   1.414       .  A
C3586      N3587   1.429       .  S
N3587      O3591   1.261       .  A
N3587      O3592   1.262       .  A
N3590      O3594   1.262       .  A
N3590      O3593   1.262       .  A
C3595      C4948   1.402       .  A
C3595      C3600   1.395       .  A
C3595      H3602   1.080       .  S
C3596      C4947   1.405       .  A
C3596      C3597   1.412       .  A
C3597      C3598   1.398       .  A
C3597      N3604   1.429   1_545  S
C3598      C3599   1.401       .  A
C3598      H3603   1.081   1_545  S
C3599      C4952   1.411       .  A
C3600      C4951   1.403       .  A
C3600      N3601   1.427       .  S
N3601      O3605   1.260       .  A
N3601      O3606   1.261       .  A
N3604      O3608   1.262       .  A
N3604      O3607   1.261   1_565  A
C3609      C3610   1.398   1_545  A
C3609      C3614   1.391       .  A
C3609      H3616   1.085       .  S
C3610      C4963   1.405       .  A
C3611      C4962   1.406       .  A
C3611      C3612   1.401       .  A
C3611      N3618   1.430       .  S
C3612      C4965   1.407       .  A
C3612      H3617   1.075       .  S
C3613      C4964   1.406       .  A
C3613      C3614   1.410   1_565  A
C3614      N3615   1.429       .  S
N3615      O3619   1.261   1_545  A
N3615      O3620   1.262       .  A
N3618      O3622   1.262       .  A
N3618      O3621   1.262       .  A
C3623      C3624   1.398       .  A
C3623      C3628   1.396       .  A
C3623      H3630   1.076       .  S
C3625      C3626   1.403       .  A
C3625      N3632   1.431   1_655  S
C3626      H3631   1.084       .  S
C3627      C3628   1.412       .  A
C3628      N3629   1.429       .  S
N3629      O3633   1.262       .  A
N3629      O3634   1.262       .  A
N3632      O3636   1.260   1_455  A
N3632      O3635   1.261       .  A
C3637      C3638   1.403       .  A
C3637      C3642   1.392       .  A
C3637      H3644   1.083       .  S
C3638      C3639   1.417       .  A
C3639      C3640   1.408       .  A
C3639      N3646   1.428       .  S
C3640      C3641   1.408       .  A
C3640      H3645   1.083       .  S
C3641      C3642   1.420       .  A
C3642      N3643   1.430       .  S
N3643      O3647   1.262       .  A
N3643      O3648   1.262       .  A
N3646      O3650   1.262       .  A
N3646      O3649   1.262       .  A
C3651      C3652   1.402       .  A
C3651      C3656   1.404       .  A
C3651      H3658   1.084       .  S
C3652      C3653   1.407       .  A
C3653      C3654   1.392       .  A
C3653      N3660   1.430       .  S
C3654      C3655   1.406       .  A
C3654      H3659   1.083       .  S
C3655      C3656   1.416       .  A
C3656      N3657   1.428       .  S
N3657      O3661   1.262       .  A
N3657      O3662   1.260       .  A
N3660      O3664   1.262       .  A
N3660      O3663   1.262       .  A
C3665      C3666   1.403       .  A
C3665      C3670   1.408       .  A
C3665      H3672   1.083       .  S
C3666      C3667   1.413       .  A
C3667      C3668   1.401       .  A
C3667      N3674   1.430       .  S
C3668      C3669   1.403       .  A
C3668      H3673   1.084       .  S
C3669      C3670   1.417       .  A
C3670      N3671   1.429       .  S
N3671      O3675   1.262       .  A
N3671      O3676   1.262       .  A
N3674      O3678   1.262       .  A
N3674      O3677   1.262       .  A
C3679      C3680   1.401       .  A
C3679      C3684   1.395       .  A
C3679      H3686   1.084       .  S
C3680      C3681   1.413       .  A
C3681      C3682   1.400       .  A
C3681      N3688   1.427       .  S
C3682      C3683   1.402       .  A
C3682      H3687   1.084       .  S
C3683      C3684   1.411       .  A
C3684      N3685   1.427       .  S
N3685      O3689   1.262       .  A
N3685      O3690   1.261       .  A
N3688      O3692   1.262       .  A
N3688      O3691   1.262   1_655  A
C3693      C3694   1.400       .  A
C3693      C3698   1.396       .  A
C3693      H3700   1.083       .  S
C3694      C3695   1.417       .  A
C3695      C3696   1.401       .  A
C3695      N3702   1.430       .  S
C3696      C3697   1.400       .  A
C3696      H3701   1.084       .  S
C3697      C3698   1.416       .  A
C3698      N3699   1.431       .  S
N3699      O3703   1.262       .  A
N3699      O3704   1.262       .  A
N3702      O3706   1.261       .  A
N3702      O3705   1.262       .  A
C3707      C3708   1.403       .  A
C3707      C3712   1.404       .  A
C3707      H3714   1.084       .  S
C3708      C3709   1.411       .  A
C3709      C3710   1.394       .  A
C3709      N3716   1.431       .  S
C3710      C3711   1.402       .  A
C3710      H3715   1.085       .  S
C3711      C3712   1.414       .  A
C3712      N3713   1.430       .  S
N3713      O3717   1.262       .  A
N3713      O3718   1.262       .  A
N3716      O3720   1.262       .  A
N3716      O3719   1.262       .  A
C3721      C3722   1.405       .  A
C3721      C3726   1.393       .  A
C3721      H3728   1.083       .  S
C3722      C3723   1.418       .  A
C3723      C3724   1.399       .  A
C3723      N3730   1.429       .  S
C3724      C3725   1.400       .  A
C3724      H3729   1.084       .  S
C3725      C3726   1.409       .  A
C3726      N3727   1.430       .  S
N3727      O3731   1.261       .  A
N3727      O3732   1.261       .  A
N3730      O3734   1.262       .  A
N3730      O3733   1.262       .  A
C3735      C3736   1.406       .  A
C3735      C3740   1.403       .  A
C3735      H3742   1.084       .  S
C3736      C3737   1.409       .  A
C3737      C3738   1.399       .  A
C3737      N3744   1.427       .  S
C3738      C3739   1.398       .  A
C3738      H3743   1.084       .  S
C3739      C3740   1.406       .  A
C3740      N3741   1.430       .  S
N3741      O3745   1.262       .  A
N3741      O3746   1.262       .  A
N3744      O3748   1.261       .  A
N3744      O3747   1.262       .  A
C3749      C3750   1.403       .  A
C3749      C3754   1.389       .  A
C3749      H3756   1.084       .  S
C3750      C3751   1.414       .  A
C3751      C3752   1.405       .  A
C3751      N3758   1.428       .  S
C3752      C3753   1.408       .  A
C3752      H3757   1.083       .  S
C3753      C3754   1.415       .  A
C3754      N3755   1.428       .  S
N3755      O3759   1.261       .  A
N3755      O3760   1.260       .  A
N3758      O3762   1.261       .  A
N3758      O3761   1.262       .  A
C3763      C3764   1.404       .  A
C3763      C3768   1.398       .  A
C3763      H3770   1.083       .  S
C3764      C3765   1.419       .  A
C3765      C3766   1.396       .  A
C3765      N3772   1.430       .  S
C3766      C3767   1.399       .  A
C3766      H3771   1.084       .  S
C3767      C3768   1.408       .  A
C3768      N3769   1.426       .  S
N3769      O3773   1.260       .  A
N3769      O3774   1.262       .  A
N3772      O3776   1.262       .  A
N3772      O3775   1.262       .  A
C3777      C3778   1.402       .  A
C3777      C3782   1.403       .  A
C3777      H3784   1.072       .  S
C3778      C3779   1.416       .  A
C3779      C3780   1.393       .  A
C3779      N3786   1.427       .  S
C3780      C3781   1.401       .  A
C3780      H3785   1.082       .  S
C3781      C3782   1.417       .  A
C3782      N3783   1.430       .  S
N3783      O3787   1.262       .  A
N3783      O3788   1.262       .  A
N3786      O3790   1.258       .  A
N3786      O3789   1.261       .  A
C3791      C3792   1.407       .  A
C3791      C3796   1.397       .  A
C3791      H3798   1.083       .  S
C3792      C3793   1.414       .  A
C3793      C3794   1.400       .  A
C3793      N3800   1.429       .  S
C3794      C3795   1.405       .  A
C3794      H3799   1.083       .  S
C3795      C3796   1.402       .  A
C3796      N3797   1.423       .  S
N3797      O3801   1.258       .  A
N3797      O5154   1.262       .  A
N3800      O3804   1.262       .  A
N3800      O3803   1.262       .  A
O3802      N5149   1.261       .  A
C3805      C3806   1.397       .  A
C3805      C3810   1.393       .  A
C3805      H3812   1.073       .  S
C3806      C3807   1.418       .  A
C3807      C3808   1.404       .  A
C3807      N3814   1.432       .  S
C3808      C3809   1.404       .  A
C3808      H3813   1.083       .  S
C3809      C3810   1.410       .  A
C3810      N3811   1.429       .  S
N3811      O3815   1.262       .  A
N3811      O3816   1.262       .  A
N3814      O3818   1.261       .  A
N3814      O3817   1.261       .  A
C3819      C3824   1.397       .  A
C3819      H3826   1.074       .  S
C3820      C3821   1.414       .  A
C3821      C3822   1.398       .  A
C3821      N3828   1.432       .  S
C3822      C3823   1.403       .  A
C3822      H3827   1.081       .  S
C3824      N3825   1.429       .  S
N3825      O3829   1.262       .  A
N3825      O3830   1.262       .  A
N3828      O3832   1.261   1_455  A
N3828      O3831   1.261       .  A
C3833      C5186   1.400   1_545  A
C3833      C3838   1.394       .  A
C3833      H3840   1.075       .  S
C3834      C5185   1.399       .  A
C3834      C3835   1.413       .  A
C3835      C3836   1.399       .  A
C3835      N3842   1.429       .  S
C3836      C3837   1.403       .  A
C3836      H3841   1.084       .  S
C3837      C5190   1.409       .  A
C3838      C5189   1.407   1_545  A
C3838      N3839   1.429       .  S
N3839      O3843   1.261       .  A
N3839      O3844   1.261   1_545  A
N3842      O3846   1.261       .  A
N3842      O3845   1.261       .  A
C3847      C3848   1.403       .  A
C3847      C3852   1.396       .  A
C3847      H3854   1.082       .  S
C3849      C3850   1.398       .  A
C3849      N3856   1.431       .  S
C3850      H3855   1.084       .  S
C3851      C3852   1.410       .  A
C3852      N3853   1.429       .  S
N3853      O3857   1.261       .  A
N3853      O3858   1.262       .  A
N3856      O3860   1.262       .  A
N3856      O3859   1.261       .  A
C3861      C3862   1.398       .  A
C3861      C3866   1.395       .  A
C3861      H3868   1.082       .  S
C3862      C3863   1.415       .  A
C3863      C3864   1.402       .  A
C3863      N3870   1.432       .  S
C3864      C3865   1.409       .  A
C3864      H3869   1.083       .  S
C3865      C3866   1.414       .  A
C3866      N3867   1.424       .  S
N3867      O3871   1.262       .  A
N3867      O3872   1.262       .  A
N3870      O3874   1.261       .  A
N3870      O3873   1.262       .  A
C3875      C5228   1.401       .  A
C3875      C3880   1.401       .  A
C3875      H3882   1.082       .  S
C3876      C5227   1.399       .  A
C3876      C3877   1.406       .  A
C3877      C3878   1.397       .  A
C3877      N3884   1.430       .  S
C3878      C3879   1.404       .  A
C3878      H3883   1.080       .  S
C3879      C5232   1.413       .  A
C3880      C5231   1.412       .  A
C3880      N3881   1.428       .  S
N3881      O3885   1.261   1_565  A
N3881      O3886   1.262       .  A
N3884      O3888   1.262       .  A
N3884      O3887   1.262       .  A
C3889      C3890   1.402       .  A
C3889      C3894   1.404       .  A
C3889      H3896   1.084       .  S
C3890      C3891   1.411       .  A
C3891      C3892   1.397       .  A
C3891      N3898   1.429       .  S
C3892      C3893   1.405       .  A
C3892      H3897   1.083       .  S
C3893      C3894   1.411       .  A
C3894      N3895   1.420       .  S
N3895      O3899   1.258       .  A
N3895      O3900   1.260       .  A
N3898      O3902   1.262       .  A
N3898      O3901   1.262       .  A
C3903      C3904   1.409       .  A
C3903      C3908   1.402       .  A
C3903      H3910   1.084       .  S
C3904      C3905   1.412       .  A
C3905      C3906   1.400       .  A
C3905      N3912   1.430       .  S
C3906      C3907   1.411       .  A
C3906      H3911   1.080       .  S
C3907      C3908   1.409       .  A
C3908      N3909   1.425       .  S
N3909      O3913   1.260       .  A
N3909      O3914   1.262   1_545  A
N3912      O3916   1.262       .  A
N3912      O3915   1.262       .  A
C3917      C3918   1.396       .  A
C3917      C3922   1.401       .  A
C3917      H3924   1.084       .  S
C3918      C3919   1.408       .  A
C3919      C3920   1.402       .  A
C3919      N3926   1.430       .  S
C3920      C3921   1.403       .  A
C3920      H3925   1.084       .  S
C3921      C3922   1.409       .  A
C3922      N3923   1.422       .  S
N3923      O3927   1.259       .  A
N3923      O3928   1.261       .  A
N3926      O3930   1.261   1_556  A
C3931      C3932   1.404       .  A
C3931      C3936   1.397       .  A
C3931      H3938   1.084       .  S
C3932      C3933   1.417       .  A
C3933      C3934   1.410       .  A
C3933      N3940   1.429       .  S
C3934      C3935   1.406       .  A
C3934      H3939   1.083       .  S
C3935      C3936   1.413       .  A
C3936      N3937   1.430       .  S
N3937      O3941   1.262       .  A
N3940      O3944   1.262       .  A
N3940      O3943   1.262       .  A
C3945      C3946   1.401       .  A
C3945      C3950   1.399       .  A
C3945      H3952   1.084       .  S
C3946      C3947   1.410       .  A
C3947      C3948   1.389       .  A
C3947      N3954   1.431       .  S
C3948      C3949   1.405       .  A
C3948      H3953   1.080       .  S
C3949      C3950   1.415       .  A
C3950      N3951   1.425       .  S
N3951      O3955   1.260       .  A
N3951      O3956   1.262       .  A
N3954      O3958   1.262       .  A
N3954      O3957   1.261       .  A
C3959      C3960   1.409       .  A
C3959      C3964   1.396       .  A
C3959      H3966   1.083       .  S
C3960      C3961   1.414       .  A
C3961      C3962   1.401       .  A
C3961      N3968   1.428       .  S
C3962      C3963   1.407       .  A
C3962      H3967   1.084       .  S
C3963      C3964   1.411       .  A
C3964      N3965   1.430       .  S
N3965      O3969   1.262       .  A
N3965      O3970   1.262       .  A
N3968      O3972   1.262   1_655  A
C3973      C3974   1.405       .  A
C3973      C3978   1.400       .  A
C3973      H3980   1.083       .  S
C3974      C3975   1.416       .  A
C3975      C3976   1.393       .  A
C3975      N3982   1.427       .  S
C3976      C3977   1.399       .  A
C3976      H3981   1.084       .  S
C3977      C3978   1.411       .  A
C3978      N3979   1.427       .  S
N3979      O3983   1.261       .  A
N3982      O3986   1.261       .  A
N3982      O3985   1.262       .  A
C3987      C3988   1.402       .  A
C3987      C3992   1.391       .  A
C3987      H3994   1.084       .  S
C3988      C3989   1.414       .  A
C3989      C3990   1.413       .  A
C3989      N3996   1.429       .  S
C3990      C3991   1.411       .  A
C3990      H3995   1.083       .  S
C3991      C3992   1.419       .  A
C3992      N3993   1.430       .  S
N3993      O3997   1.262       .  A
N3993      O3998   1.262       .  A
N3996      O4000   1.261       .  A
N3996      O3999   1.261       .  A
C4001      C4002   1.407       .  A
C4001      C4006   1.405       .  A
C4001      H4008   1.083       .  S
C4002      C4003   1.410       .  A
C4003      C4004   1.397       .  A
C4003      N4010   1.427       .  S
C4004      C4005   1.409       .  A
C4004      H4009   1.083       .  S
C4005      C4006   1.412       .  A
C4006      N4007   1.424       .  S
N4007      O4011   1.261       .  A
N4007      O4012   1.260       .  A
N4010      O4014   1.261       .  A
N4010      O4013   1.262       .  A
C4015      C4016   1.398       .  A
C4015      C4020   1.388       .  A
C4015      H4022   1.083       .  S
C4016      C4017   1.414       .  A
C4017      C4018   1.404       .  A
C4017      N4024   1.424       .  S
C4018      C4019   1.404       .  A
C4018      H4023   1.083       .  S
C4019      C4020   1.413       .  A
C4020      N4021   1.424       .  S
N4021      O4025   1.260       .  A
N4021      O4026   1.262       .  A
N4024      O4028   1.262       .  A
N4024      O4027   1.262       .  A
C4029      C4030   1.405       .  A
C4029      C4034   1.408       .  A
C4029      H4036   1.084       .  S
C4030      C4031   1.411       .  A
C4031      C4032   1.399       .  A
C4031      N4038   1.430       .  S
C4032      C4033   1.407       .  A
C4032      H4037   1.084       .  S
C4033      C4034   1.411       .  A
C4034      N4035   1.422       .  S
N4035      O4039   1.261       .  A
N4035      O4040   1.260       .  A
N4038      O4042   1.262       .  A
N4038      O4041   1.262       .  A
C4043      C4044   1.399       .  A
C4043      C4048   1.393       .  A
C4043      H4050   1.084       .  S
C4044      C4045   1.410       .  A
C4045      C4046   1.404       .  A
C4045      N4052   1.429       .  S
C4046      C4047   1.408       .  A
C4046      H4051   1.084       .  S
C4047      C4048   1.411       .  A
C4048      N4049   1.429       .  S
N4049      O4053   1.262       .  A
N4049      O4054   1.262       .  A
N4052      O4056   1.262       .  A
N4052      O4055   1.262       .  A
Fe4057     O4073   2.068   1_556  S
Fe4057     O4063   2.057   1_556  S
Fe4057     O4746   2.062       .  S
Fe4057     O4738   2.052       .  S
Fe4057     O4744   1.949       .  S
Fe4058     O4737   2.081       .  S
Fe4058     O4741   2.081       .  S
Fe4058     O4069   2.079       .  S
Fe4058     O4074   2.082       .  S
Fe4058     O4068   1.977       .  S
Fe4059     O4753   2.043       .  S
Fe4059     O4064   2.045       .  S
Fe4059     O4747   2.056       .  S
Fe4059     O4060   2.066       .  S
Fe4059     O4068   1.983       .  S
O4060      C4067   1.265       .  A
O4061     Fe4734   2.075   1_554  S
O4061      C4075   1.272       .  A
O4062     Fe4733   2.058       .  S
O4062      C4067   1.269       .  A
O4063      C4066   1.270       .  A
O4064      C4076   1.266       .  A
O4065     Fe4734   2.078   1_554  S
O4065      C4078   1.271       .  A
C4066      O4071   1.267       .  A
C4066      C4720   1.473       .  S
C4067      C4692   1.489       .  S
O4068     Fe4733   1.970       .  S
O4069      C4072   1.272       .  A
O4070     Fe4733   2.062       .  S
O4070      C4072   1.269       .  A
O4071     Fe4735   2.068   1_554  S
C4072      C4678   1.494       .  S
O4073      C4078   1.269       .  A
O4074      C4076   1.273       .  A
C4075      O4077   1.272       .  A
C4075      C4664   1.481       .  S
C4076      C4650   1.487       .  S
O4077     Fe4735   2.066   1_554  S
C4078      C4706   1.486       .  S
Fe4079     O4095   2.068       .  S
Fe4079     O4085   2.083       .  S
Fe4079     O4768   2.072       .  S
Fe4079     O4760   2.075       .  S
Fe4079     O4766   1.961       .  S
Fe4080     O4759   2.063   1_554  S
Fe4080     O4763   2.085   1_554  S
Fe4080     O4091   2.061       .  S
Fe4080     O4096   2.067       .  S
Fe4080     O4090   1.961       .  S
Fe4081     O4775   2.045   1_554  S
Fe4081     O4086   2.068       .  S
Fe4081     O4769   2.059   1_554  S
Fe4081     O4082   2.053       .  S
Fe4081     O4090   1.952       .  S
O4082      C4089   1.267       .  A
O4083     Fe4756   2.066       .  S
O4083      C4097   1.268       .  A
O4084     Fe4755   2.091   1_554  S
O4084      C4089   1.274       .  A
O4085      C4088   1.273       .  A
O4086      C4098   1.270       .  A
O4087     Fe4756   2.068       .  S
O4087      C4100   1.270       .  A
C4088      O4093   1.271       .  A
C4088      C4608   1.481       .  S
C4089      C4639   1.494       .  S
O4090     Fe4755   1.950   1_554  S
O4091      C4094   1.269       .  A
O4092     Fe4755   2.056   1_554  S
O4092      C4094   1.269       .  A
O4093     Fe4757   2.056       .  S
C4094      C4580   1.478       .  S
O4095      C4100   1.271       .  A
O4096      C4098   1.269       .  A
C4097      O4099   1.265       .  A
C4097      C4594   1.471       .  S
C4098      C4622   1.480       .  S
O4099     Fe4757   2.057       .  S
C4100      C4566   1.480       .  S
C4101      C4555   1.497       .  S
C4101      C4106   1.428   1_545  A
C4102      C4496   1.498       .  S
C4103      C4482   1.498       .  S
C4104      C4510   1.495       .  S
C4105      C4524   1.496       .  S
C4105      C4106   1.425       .  A
C4106      C4538   1.495       .  S
C4107      C4471   1.473       .  S
C4107      N4108   1.352       .  A
C4107      N4112   1.366   1_565  A
N4108      C4109   1.348   1_565  A
C4109      C4552   1.472       .  S
N4110      C4111   1.358       .  A
C4111      C4583   1.496       .  S
C4113      C4454   1.491       .  S
C4113      N4114   1.354       .  A
C4115      C4513   1.481       .  S
C4115      N4116   1.352       .  A
N4116      C4117   1.355       .  A
C4117      C4709   1.494       .  S
C4117      N4118   1.368       .  A
C4119      C4625   1.467       .  S
C4119      N4120   1.361       .  A
C4119      N4124   1.358       .  A
N4120      C4121   1.360       .  A
C4121      C4443   1.476       .  S
C4121      N4122   1.360       .  A
N4122      C4123   1.356       .  A
C4123      C4485   1.477       .  S
C4123      N4124   1.355       .  A
C4125      C4429   1.479       .  S
C4125      N4126   1.362       .  A
C4125      N4130   1.360       .  A
C4127      C4667   1.480       .  S
C4127      N4128   1.357       .  A
C4129      C4499   1.486       .  S
C4129      N4130   1.356   1_455  A
C4131      C4723   1.479       .  S
C4131      N4132   1.359       .  A
C4131      N4136   1.361       .  A
N4132      C4133   1.358       .  A
C4133      C4415   1.484       .  S
C4133      N4134   1.358       .  A
N4134      C4135   1.358       .  A
C4135      C4541   1.494       .  S
C4135      N4136   1.360       .  A
C4137      C4401   1.473       .  S
C4137      N4138   1.355       .  A
C4139      C4527   1.484       .  S
C4139      N4140   1.356   1_455  A
N4140      C4141   1.360       .  A
C4141      C4636   1.493       .  S
C4141      N4142   1.362   1_655  A
Fe4143     O4159   2.076       .  S
Fe4143     O4149   2.065       .  S
Fe4143     O4156   2.060       .  S
Fe4143     O4148   2.075       .  S
Fe4143     O4154   1.969       .  S
Fe4144     O4147   2.079       .  S
Fe4144     O4151   2.078       .  S
Fe4144     O4155   2.066       .  S
Fe4144     O4160   2.093       .  S
Fe4144     O4154   1.961       .  S
Fe4145     O4163   2.065       .  S
Fe4145     O4150   2.051       .  S
Fe4145     O4157   2.067       .  S
Fe4145     O4146   2.062       .  S
Fe4145     O4154   1.962       .  S
O4146      C4153   1.268       .  A
O4147      C4161   1.272       .  A
O4148      C4153   1.269       .  A
O4149      C4152   1.273       .  A
O4150      C4162   1.269       .  A
O4151      C4164   1.274       .  A
C4152      O4157   1.270       .  A
C4152      C4426   1.483       .  S
C4153      C4359   1.489       .  S
O4155      C4158   1.273       .  A
O4156      C4158   1.268       .  A
C4158      C4370   1.481       .  S
O4159      C4164   1.271       .  A
O4160      C4162   1.274       .  A
C4161      O4163   1.269       .  A
C4161      C4412   1.483       .  S
C4162      C4387   1.493       .  S
C4164      C4457   1.497       .  S
Fe4165     O4181   2.049       .  S
Fe4165     O4171   2.052       .  S
Fe4165     O4178   2.049       .  S
Fe4165     O4170   2.060       .  S
Fe4165     O4176   1.953       .  S
Fe4166     O4169   2.071       .  S
Fe4166     O4173   2.079       .  S
Fe4166     O4177   2.079       .  S
Fe4166     O4182   2.072       .  S
Fe4166     O4176   1.960       .  S
Fe4167     O4185   2.078       .  S
Fe4167     O4172   2.055       .  S
Fe4167     O4179   2.058       .  S
Fe4167     O4168   2.066       .  S
Fe4167     O4176   1.954       .  S
O4168      C4175   1.272       .  A
O4169      C4183   1.273       .  A
O4170      C4175   1.267       .  A
O4171      C4174   1.266       .  A
O4172      C4184   1.268       .  A
O4173      C4186   1.271       .  A
C4174      O4179   1.267       .  A
C4174      C4328   1.471       .  S
C4175      C4398   1.486       .  S
O4177      C4180   1.273       .  A
O4178      C4180   1.266       .  A
C4180      C4440   1.487       .  S
O4181      C4186   1.269       .  A
O4182      C4184   1.271       .  A
C4183      O4185   1.271       .  A
C4183      C4345   1.481       .  S
C4184      C4468   1.486       .  S
C4186      C4314   1.490       .  S
C4187      C4289   1.492       .  S
C4187      C4192   1.419       .  A
C4188      C4300   1.490       .  S
C4189      C4261   1.496       .  S
C4190      C4272   1.486       .  S
C4191      C4230   1.496       .  S
C4191      C4192   1.417       .  A
C4192      C4244   1.496       .  S
C4193      C4373   1.470       .  S
C4193      N4194   1.351       .  A
C4193      N4198   1.365       .  A
N4194      C4195   1.349       .  A
C4195      C4286   1.462       .  S
N4196      C4197   1.361       .  A
C4197      C4681   1.493       .  S
C4199      C4342   1.483       .  S
C4199      N4204   1.359       .  A
N4200      C4201   1.370       .  A
C4201      C4569   1.484       .  S
C4201      N4202   1.359       .  A
N4202      C4203   1.346       .  A
C4203      C4275   1.468       .  S
C4205      C4356   1.478       .  S
C4205      N4206   1.357       .  A
C4205      N4210   1.363       .  A
N4206      C4207   1.355       .  A
C4207      C4233   1.481       .  S
N4208      C4209   1.365       .  A
C4209      C4653   1.479       .  S
C4211      C4597   1.476       .  S
C4211      N4212   1.363       .  A
C4211      N4216   1.360       .  A
N4212      C4213   1.363       .  A
C4213      C4317   1.489       .  S
C4213      N4214   1.354       .  A
N4214      C4215   1.351       .  A
C4215      C4247   1.480       .  S
C4215      N4216   1.356       .  A
C4217      C4331   1.479       .  S
C4217      N4218   1.355       .  A
C4217      N4222   1.362       .  A
N4218      C4219   1.347       .  A
C4219      C4303   1.483       .  S
N4220      C4221   1.360       .  A
C4221      C4611   1.482       .  S
C4223      C4695   1.481       .  S
C4223      N4224   1.360       .  A
C4223      N4228   1.360       .  A
N4224      C4225   1.359       .  A
C4225      C4384   1.483       .  S
C4225      N4226   1.358       .  A
N4226      C4227   1.360       .  A
C4227      C4258   1.483       .  S
C4227      N4228   1.358       .  A
C4229      C4234   1.394       .  A
C4229      H4236   1.079       .  S
C4230      C4231   1.422       .  A
C4231      C4232   1.413       .  A
C4231      N4238   1.442       .  S
C4232      H4237   1.083       .  S
C4233      C4234   1.406       .  A
C4234      N4235   1.430       .  S
N4235      O4239   1.262   1_655  A
N4235      O4240   1.262       .  A
N4238      O4242   1.262       .  A
N4238      O4241   1.263       .  A
C4243      C4244   1.408       .  A
C4243      C4248   1.402       .  A
C4243      H4250   1.083       .  S
C4244      C4245   1.416       .  A
C4245      C4246   1.398       .  A
C4245      N4252   1.433       .  S
C4246      C4247   1.402       .  A
C4246      H4251   1.083       .  S
C4247      C4248   1.408       .  A
C4248      N4249   1.430       .  S
N4249      O4253   1.262       .  A
N4249      O4254   1.262       .  A
N4252      O4256   1.260       .  A
N4252      O4255   1.262       .  A
C4257      C4258   1.403       .  A
C4257      C4262   1.401       .  A
C4257      H4264   1.084       .  S
C4258      C4259   1.412       .  A
C4259      C4260   1.398       .  A
C4259      N4266   1.429       .  S
C4260      C4261   1.402       .  A
C4260      H4265   1.083       .  S
C4261      C4262   1.417       .  A
C4262      N4263   1.431       .  S
N4263      O4267   1.261       .  A
N4263      O4268   1.260       .  A
N4266      O4270   1.261       .  A
N4266      O4269   1.262       .  A
C4271      C4276   1.398       .  A
C4271      H4278   1.080       .  S
C4272      C4273   1.410       .  A
C4273      C4274   1.392       .  A
C4273      N4280   1.428       .  S
C4274      C4275   1.398       .  A
C4274      H4279   1.083       .  S
C4276      N4277   1.429       .  S
N4277      O4281   1.262   1_545  A
N4277      O4282   1.262       .  A
N4280      O4284   1.260       .  A
N4280      O4283   1.261       .  A
C4285      C4286   1.395       .  A
C4285      C4290   1.394       .  A
C4285      H4292   1.085       .  S
C4287      C4288   1.401       .  A
C4287      N4294   1.429       .  S
C4288      H4293   1.081       .  S
C4289      C4290   1.417       .  A
C4290      N4291   1.431       .  S
N4291      O4295   1.260       .  A
N4291      O4296   1.262       .  A
N4294      O4298   1.262       .  A
N4294      O4297   1.262   1_565  A
C4299      C4300   1.398       .  A
C4299      C4304   1.395       .  A
C4299      H4306   1.073       .  S
C4301      C4302   1.402       .  A
C4301      N4308   1.429       .  S
C4302      H4307   1.092       .  S
C4303      C4304   1.416       .  A
C4304      N4305   1.429       .  S
N4305      O4309   1.262       .  A
N4305      O4310   1.262       .  A
N4308      O4312   1.262       .  A
N4308      O4311   1.261       .  A
C4313      C4314   1.404       .  A
C4313      C4318   1.389       .  A
C4313      H4320   1.083       .  S
C4314      C4315   1.414       .  A
C4315      C4316   1.406       .  A
C4315      N4322   1.427       .  S
C4316      C4317   1.408       .  A
C4316      H4321   1.083       .  S
C4317      C4318   1.418       .  A
C4318      N4319   1.431       .  S
N4319      O4323   1.261       .  A
N4319      O4324   1.262       .  A
N4322      O4326   1.262       .  A
N4322      O4325   1.262       .  A
C4327      C4328   1.404       .  A
C4327      C4332   1.404       .  A
C4327      H4334   1.083       .  S
C4328      C4329   1.409       .  A
C4329      C4330   1.387       .  A
C4329      N4336   1.430       .  S
C4330      C4331   1.404       .  A
C4330      H4335   1.082       .  S
C4331      C4332   1.414       .  A
C4332      N4333   1.429       .  S
N4333      O4337   1.261       .  A
N4333      O4338   1.260       .  A
N4336      O4340   1.262       .  A
N4336      O4339   1.262       .  A
C4341      C4342   1.407       .  A
C4341      C4346   1.408       .  A
C4341      H4348   1.082       .  S
C4342      C4343   1.412       .  A
C4343      C4344   1.393       .  A
C4343      N4350   1.430       .  S
C4344      C4345   1.402       .  A
C4344      H4349   1.084       .  S
C4345      C4346   1.413       .  A
C4346      N4347   1.428       .  S
N4347      O4351   1.262       .  A
N4347      O4352   1.262       .  A
N4350      O4354   1.262       .  A
N4350      O4353   1.262       .  A
C4355      C4356   1.402       .  A
C4355      C4360   1.400       .  A
C4355      H4362   1.084       .  S
C4356      C4357   1.409       .  A
C4357      C4358   1.400       .  A
C4357      N4364   1.427       .  S
C4358      C4359   1.407       .  A
C4358      H4363   1.083       .  S
C4359      C4360   1.413       .  A
C4360      N4361   1.426       .  S
N4361      O4365   1.262       .  A
N4361      O4366   1.262       .  A
N4364      O4368   1.261       .  A
N4364      O4367   1.262   1_655  A
C4369      C4370   1.403       .  A
C4369      C4374   1.396       .  A
C4369      H4376   1.083       .  S
C4370      C4371   1.418       .  A
C4371      C4372   1.399       .  A
C4371      N4378   1.429       .  S
C4372      C4373   1.399       .  A
C4372      H4377   1.084       .  S
C4373      C4374   1.411       .  A
C4374      N4375   1.430       .  S
N4375      O4379   1.262       .  A
N4375      O4380   1.262       .  A
N4378      O4382   1.262       .  A
N4378      O4381   1.262       .  A
C4383      C4384   1.404       .  A
C4383      C4388   1.404       .  A
C4383      H4390   1.083       .  S
C4384      C4385   1.410       .  A
C4385      C4386   1.399       .  A
C4385      N4392   1.430       .  S
C4386      C4387   1.409       .  A
C4386      H4391   1.083       .  S
C4387      C4388   1.418       .  A
C4388      N4389   1.430       .  S
N4389      O4393   1.261       .  A
N4389      O4394   1.262       .  A
N4392      O4396   1.262       .  A
N4392      O4395   1.262       .  A
C4397      C4398   1.404       .  A
C4397      C4402   1.396       .  A
C4397      H4404   1.083       .  S
C4398      C4399   1.420       .  A
C4399      C4400   1.398       .  A
C4399      N4406   1.429       .  S
C4400      C4401   1.399       .  A
C4400      H4405   1.083       .  S
C4401      C4402   1.414       .  A
C4402      N4403   1.432       .  S
N4403      O4407   1.262       .  A
N4403      O4408   1.262       .  A
N4406      O4410   1.262       .  A
N4406      O4409   1.262       .  A
C4411      C4412   1.404       .  A
C4411      C4416   1.407       .  A
C4411      H4418   1.084       .  S
C4412      C4413   1.414       .  A
C4413      C4414   1.395       .  A
C4413      N4420   1.430       .  S
C4414      C4415   1.400       .  A
C4414      H4419   1.084       .  S
C4415      C4416   1.415       .  A
C4416      N4417   1.428       .  S
N4417      O4421   1.260       .  A
N4417      O4422   1.260       .  A
N4420      O4424   1.262       .  A
N4420      O4423   1.262       .  A
C4425      C4426   1.402       .  A
C4425      C4430   1.392       .  A
C4425      H4432   1.084       .  S
C4426      C4427   1.416       .  A
C4427      C4428   1.405       .  A
C4427      N4434   1.428       .  S
C4428      C4429   1.405       .  A
C4428      H4433   1.084       .  S
C4429      C4430   1.411       .  A
C4430      N4431   1.428       .  S
N4431      O4435   1.261       .  A
N4431      O4436   1.260       .  A
N4434      O4438   1.262       .  A
N4434      O4437   1.262       .  A
C4439      C4440   1.407       .  A
C4439      C4444   1.401       .  A
C4439      H4446   1.083       .  S
C4440      C4441   1.416       .  A
C4441      C4442   1.396       .  A
C4441      N4448   1.429       .  S
C4442      C4443   1.400       .  A
C4442      H4447   1.084       .  S
C4443      C4444   1.410       .  A
C4444      N4445   1.427       .  S
N4445      O4449   1.260       .  A
N4445      O4450   1.262       .  A
N4448      O4452   1.262       .  A
N4448      O4451   1.262       .  A
C4453      C4454   1.403       .  A
C4453      C4458   1.407       .  A
C4453      H4460   1.080       .  S
C4454      C4455   1.416       .  A
C4455      C4456   1.399       .  A
C4455      N4462   1.431       .  S
C4456      C4457   1.406       .  A
C4456      H4461   1.083       .  S
C4457      C4458   1.418       .  A
C4458      N4459   1.429       .  S
N4459      O4463   1.262       .  A
N4459      O4464   1.262       .  A
N4462      O4466   1.262       .  A
N4462      O4465   1.262       .  A
C4467      C4468   1.410       .  A
C4467      C4472   1.396       .  A
C4467      H4474   1.083       .  S
C4468      C4469   1.413       .  A
C4469      C4470   1.398       .  A
C4469      N4476   1.429       .  S
C4470      C4471   1.404       .  A
C4470      H4475   1.084       .  S
C4471      C4472   1.403       .  A
C4472      N4473   1.426       .  S
N4473      O4477   1.259       .  A
N4476      O4480   1.262       .  A
N4476      O4479   1.262       .  A
C4481      C4482   1.400       .  A
C4481      C4486   1.396       .  A
C4481      H4488   1.075       .  S
C4482      C4483   1.417       .  A
C4483      C4484   1.405       .  A
C4483      N4490   1.430       .  S
C4484      C4485   1.403       .  A
C4484      H4489   1.083       .  S
C4485      C4486   1.408       .  A
C4486      N4487   1.429       .  S
N4487      O4491   1.262       .  A
N4487      O4492   1.262       .  A
N4490      O4494   1.261       .  A
N4490      O4493   1.261       .  A
C4495      C4500   1.394       .  A
C4495      H4502   1.075       .  S
C4496      C4497   1.415       .  A
C4497      C4498   1.401       .  A
C4497      N4504   1.432       .  S
C4498      C4499   1.404       .  A
C4498      H4503   1.080       .  S
C4500      N4501   1.429       .  S
N4501      O4505   1.261       .  A
N4501      O4506   1.262       .  A
N4504      O4508   1.261       .  A
N4504      O4507   1.262       .  A
C4509      C4514   1.395       .  A
C4509      H4516   1.082       .  S
C4510      C4511   1.414       .  A
C4511      C4512   1.401       .  A
C4511      N4518   1.430       .  S
C4512      C4513   1.404       .  A
C4512      H4517   1.084       .  S
C4514      N4515   1.429       .  S
N4515      O4519   1.262       .  A
N4515      O4520   1.261       .  A
N4518      O4522   1.260   1_565  A
N4518      O4521   1.262       .  A
C4523      C4524   1.402   1_455  A
C4523      C4528   1.397       .  A
C4523      H4530   1.082       .  S
C4525      C4526   1.397       .  A
C4525      N4532   1.432       .  S
C4526      H4531   1.084       .  S
C4527      C4528   1.413       .  A
C4528      N4529   1.429       .  S
N4529      O4533   1.262       .  A
N4529      O4534   1.262       .  A
N4532      O4536   1.262       .  A
N4532      O4535   1.261       .  A
C4537      C4538   1.396       .  A
C4537      C4542   1.392       .  A
C4537      H4544   1.083       .  S
C4538      C4539   1.417       .  A
C4539      C4540   1.406       .  A
C4539      N4546   1.433       .  S
C4540      C4541   1.410       .  A
C4540      H4545   1.084       .  S
C4541      C4542   1.413       .  A
C4542      N4543   1.424       .  S
N4543      O4547   1.262       .  A
N4543      O4548   1.261       .  A
N4546      O4550   1.261       .  A
N4546      O4549   1.262       .  A
C4551      C4556   1.395       .  A
C4551      H4558   1.084       .  S
C4552      C4553   1.406       .  A
C4553      C4554   1.400       .  A
C4553      N4560   1.430       .  S
C4554      C4555   1.405       .  A
C4554      H4559   1.072       .  S
C4556      N4557   1.430       .  S
N4557      O4561   1.261       .  A
N4557      O4562   1.262       .  A
N4560      O4564   1.262   1_545  A
N4560      O4563   1.262       .  A
C4565      C4566   1.406       .  A
C4565      C4570   1.409       .  A
C4565      H4572   1.083       .  S
C4566      C4567   1.411       .  A
C4567      C4568   1.389       .  A
C4567      N4574   1.430       .  S
C4568      C4569   1.403       .  A
C4568      H4573   1.083       .  S
C4569      C4570   1.412       .  A
C4570      N4571   1.425       .  S
N4571      O4575   1.259       .  A
N4571      O4576   1.260       .  A
N4574      O4578   1.262       .  A
N4574      O4577   1.262       .  A
C4579      C4580   1.406       .  A
C4579      C4584   1.402       .  A
C4579      H4586   1.084       .  S
C4580      C4581   1.406       .  A
C4581      C4582   1.391       .  A
C4581      N4588   1.430       .  S
C4582      C4583   1.412       .  A
C4582      H4587   1.081       .  S
C4583      C4584   1.411       .  A
C4584      N4585   1.422       .  S
N4585      O4589   1.260       .  A
N4585      O4590   1.261       .  A
N4588      O4592   1.262       .  A
N4588      O4591   1.262       .  A
C4593      C4594   1.399       .  A
C4593      C4598   1.402       .  A
C4593      H4600   1.084       .  S
C4594      C4595   1.409       .  A
C4595      C4596   1.397       .  A
C4595      N4602   1.429       .  S
C4596      C4597   1.402       .  A
C4596      H4601   1.084       .  S
C4597      C4598   1.411       .  A
C4598      N4599   1.425       .  S
N4599      O4603   1.261       .  A
N4599      O4604   1.262       .  A
N4602      O4606   1.261       .  A
N4602      O5281   1.262       .  A
O4605      N5278   1.262   1_554  A
C4607      C4608   1.401       .  A
C4607      C4612   1.390       .  A
C4607      H4614   1.081       .  S
C4608      C4609   1.411       .  A
C4609      C4610   1.408       .  A
C4609      N4616   1.428       .  S
C4610      C4611   1.409       .  A
C4610      H4615   1.083       .  S
C4611      C4612   1.411       .  A
C4612      N4613   1.430       .  S
N4613      O4617   1.262       .  A
N4616      O4620   1.261       .  A
N4616      O4619   1.262       .  A
C4621      C4622   1.406       .  A
C4621      C4626   1.399       .  A
C4621      H4628   1.084       .  S
C4622      C4623   1.413       .  A
C4623      C4624   1.400       .  A
C4623      N4630   1.429       .  S
C4624      C4625   1.400       .  A
C4624      H4629   1.084       .  S
C4625      C4626   1.408       .  A
C4626      N4627   1.430       .  S
N4627      O4631   1.262       .  A
N4627      O4632   1.262       .  A
N4630      O4634   1.262       .  A
N4630      O4633   1.262       .  A
C4635      C4636   1.404       .  A
C4635      C4640   1.396       .  A
C4635      H4642   1.083       .  S
C4636      C4637   1.415       .  A
C4637      C4638   1.406       .  A
C4637      N4644   1.428       .  S
C4638      C4639   1.407       .  A
C4638      H4643   1.083       .  S
C4639      C4640   1.415       .  A
C4640      N4641   1.427       .  S
N4641      O4645   1.260       .  A
N4641      O4646   1.262       .  A
N4644      O4648   1.262   1_655  A
C4649      C4650   1.407       .  A
C4649      C4654   1.404       .  A
C4649      H4656   1.083       .  S
C4650      C4651   1.416       .  A
C4651      C4652   1.394       .  A
C4651      N4658   1.430       .  S
C4652      C4653   1.400       .  A
C4652      H4657   1.081       .  S
C4653      C4654   1.412       .  A
C4654      N4655   1.429       .  S
N4655      O4659   1.262       .  A
N4658      O4662   1.262       .  A
N4658      O4661   1.262       .  A
C4663      C4664   1.400       .  A
C4663      C4668   1.392       .  A
C4663      H4670   1.084       .  S
C4664      C4665   1.412       .  A
C4665      C4666   1.409       .  A
C4665      N4672   1.427       .  S
C4666      C4667   1.407       .  A
C4666      H4671   1.083       .  S
C4667      C4668   1.413       .  A
C4668      N4669   1.430       .  S
N4669      O4673   1.262       .  A
N4669      O4674   1.262       .  A
N4672      O4676   1.262       .  A
N4672      O4675   1.261       .  A
C4677      C4678   1.407       .  A
C4677      C4682   1.403       .  A
C4677      H4684   1.083       .  S
C4678      C4679   1.412       .  A
C4679      C4680   1.401       .  A
C4679      N4686   1.426       .  S
C4680      C4681   1.407       .  A
C4680      H4685   1.083       .  S
C4681      C4682   1.414       .  A
C4682      N4683   1.427       .  S
N4683      O4687   1.262   1_565  A
N4683      O4688   1.262       .  A
N4686      O4690   1.261       .  A
N4686      O4689   1.262       .  A
C4691      C4692   1.405       .  A
C4691      C4696   1.396       .  A
C4691      H4698   1.084       .  S
C4692      C4693   1.418       .  A
C4693      C4694   1.402       .  A
C4693      N4700   1.429       .  S
C4694      C4695   1.404       .  A
C4694      H4699   1.084       .  S
C4695      C4696   1.411       .  A
C4696      N4697   1.430       .  S
N4697      O4701   1.262       .  A
N4697      O4702   1.261       .  A
N4700      O4704   1.262       .  A
N4700      O4703   1.262       .  A
C4705      C4706   1.404       .  A
C4705      C4710   1.408       .  A
C4705      H4712   1.083       .  S
C4706      C4707   1.411       .  A
C4707      C4708   1.398       .  A
C4707      N4714   1.430       .  S
C4708      C4709   1.407       .  A
C4708      H4713   1.084       .  S
C4709      C4710   1.413       .  A
C4710      N4711   1.423       .  S
N4711      O4715   1.262       .  A
N4711      O4716   1.260       .  A
N4714      O4718   1.262       .  A
N4714      O4717   1.262       .  A
C4719      C4720   1.397       .  A
C4719      C4724   1.392       .  A
C4719      H4726   1.084       .  S
C4720      C4721   1.410       .  A
C4721      C4722   1.405       .  A
C4721      N4728   1.429       .  S
C4722      C4723   1.408       .  A
C4722      H4727   1.084       .  S
C4723      C4724   1.412       .  A
C4724      N4725   1.429       .  S
N4725      O4729   1.262       .  A
N4725      O4730   1.262       .  A
N4728      O4732   1.262       .  A
N4728      O4731   1.262       .  A
Fe4733     O4749   2.073       .  S
Fe4733     O4739   2.071       .  S
Fe4734     O4745   2.071       .  S
Fe4734     O4750   2.071       .  S
Fe4734     O4744   1.961       .  S
Fe4735     O4740   2.052       .  S
Fe4735     O4736   2.089       .  S
Fe4735     O4744   1.967       .  S
O4736      C4743   1.271       .  A
O4737      C4751   1.271       .  A
O4738      C4743   1.269       .  A
O4739      C4742   1.273       .  A
O4740      C4752   1.267       .  A
O4741      C4754   1.273       .  A
C4742      O4747   1.266       .  A
C4742      C5396   1.472       .  S
C4743      C5368   1.493       .  S
O4745      C4748   1.271       .  A
O4746      C4748   1.270       .  A
C4748      C5354   1.490       .  S
O4749      C4754   1.270       .  A
O4750      C4752   1.271       .  A
C4751      O4753   1.265       .  A
C4751      C5340   1.495       .  S
C4752      C5326   1.484       .  S
C4754      C5382   1.486       .  S
Fe4755     O4771   2.080       .  S
Fe4755     O4761   2.063       .  S
Fe4756     O4767   2.066       .  S
Fe4756     O4772   2.054       .  S
Fe4756     O4766   1.965       .  S
Fe4757     O4762   2.070       .  S
Fe4757     O4758   2.057       .  S
Fe4757     O4766   1.960       .  S
O4758      C4765   1.267       .  A
O4759      C4773   1.270       .  A
O4760      C4765   1.270       .  A
O4761      C4764   1.269       .  A
O4762      C4774   1.272       .  A
O4763      C4776   1.271       .  A
C4764      O4769   1.271       .  A
C4764      C5284   1.486       .  S
C4765      C5315   1.477       .  S
O4767      C4770   1.269       .  A
O4768      C4770   1.271       .  A
C4770      C5256   1.493       .  S
O4771      C4776   1.275       .  A
O4772      C4774   1.268       .  A
C4773      O4775   1.266       .  A
C4773      C5270   1.466       .  S
C4774      C5298   1.480       .  S
C4776      C5242   1.498       .  S
C4777      C5231   1.495       .  S
C4777      C4782   1.424       .  A
C4778      C5172   1.490       .  S
C4779      C5158   1.484       .  S
C4780      C5186   1.491       .  S
C4781      C5200   1.494       .  S
C4781      C4782   1.423   1_455  A
C4782      C5214   1.494       .  S
C4783      C5147   1.495       .  S
C4783      N4784   1.356       .  A
C4783      N4788   1.370   1_565  A
N4784      C4785   1.348   1_565  A
C4785      C5228   1.470   1_545  S
N4786      C4787   1.358       .  A
C4787      C5259   1.490       .  S
C4789      C5130   1.488       .  S
C4789      N4790   1.362       .  A
C4791      C5189   1.466       .  S
C4791      N4792   1.355       .  A
N4792      C4793   1.356       .  A
C4793      C5385   1.485       .  S
C4793      N4794   1.366   1_565  A
C4795      C5301   1.465       .  S
C4795      N4796   1.361       .  A
C4795      N4800   1.354       .  A
N4796      C4797   1.362       .  A
C4797      C5119   1.481       .  S
C4797      N4798   1.358       .  A
N4798      C4799   1.351       .  A
C4799      C5161   1.467       .  S
C4799      N4800   1.350       .  A
C4801      C5105   1.486       .  S
C4801      N4802   1.367   1_655  A
C4801      N4806   1.355       .  A
C4803      C5343   1.502       .  S
C4803      N4804   1.359       .  A
C4805      C5175   1.478       .  S
C4805      N4806   1.351   1_455  A
C4807      C5399   1.483       .  S
C4807      N4808   1.362       .  A
C4807      N4812   1.359       .  A
N4808      C4809   1.361       .  A
C4809      C5091   1.482       .  S
C4809      N4810   1.359       .  A
N4810      C4811   1.359       .  A
C4811      C5217   1.493       .  S
C4811      N4812   1.358       .  A
C4813      C5077   1.465       .  S
C4813      N4814   1.360       .  A
C4815      C5203   1.491       .  S
C4815      N4816   1.354   1_455  A
N4816      C4817   1.360       .  A
C4817      C5312   1.496       .  S
C4817      N4818   1.365       .  A
Fe4819     O4835   2.071       .  S
Fe4819     O4825   2.069       .  S
Fe4819     O4832   2.075       .  S
Fe4819     O4824   2.064       .  S
Fe4819     O4830   1.960       .  S
Fe4820     O4823   2.089       .  S
Fe4820     O4827   2.070       .  S
Fe4820     O4831   2.081       .  S
Fe4820     O4836   2.084       .  S
Fe4820     O4830   1.953       .  S
Fe4821     O4839   2.069       .  S
Fe4821     O4826   2.050       .  S
Fe4821     O4833   2.064       .  S
Fe4821     O4822   2.062       .  S
Fe4821     O4830   1.953       .  S
O4822      C4829   1.268       .  A
O4823      C4837   1.274       .  A
O4824      C4829   1.267       .  A
O4825      C4828   1.273       .  A
O4826      C4838   1.270       .  A
O4827      C4840   1.273       .  A
C4828      O4833   1.270       .  A
C4828      C5102   1.481       .  S
C4829      C5035   1.470       .  S
O4831      C4834   1.276       .  A
O4832      C4834   1.269       .  A
C4834      C5046   1.499       .  S
O4835      C4840   1.269       .  A
O4836      C4838   1.271       .  A
C4837      O4839   1.270       .  A
C4837      C5088   1.485       .  S
C4838      C5063   1.490       .  S
C4840      C5133   1.476       .  S
Fe4841     O4857   2.040       .  S
Fe4841     O4847   2.057       .  S
Fe4841     O4854   2.046       .  S
Fe4841     O4846   2.051       .  S
Fe4841     O4852   1.949       .  S
Fe4842     O4845   2.083       .  S
Fe4842     O4849   2.073       .  S
Fe4842     O4853   2.085       .  S
Fe4842     O4858   2.067       .  S
Fe4842     O4852   1.953       .  S
Fe4843     O4861   2.075       .  S
Fe4843     O4848   2.068       .  S
Fe4843     O4855   2.075       .  S
Fe4843     O4844   2.069       .  S
Fe4843     O4852   1.949       .  S
O4844      C4851   1.268       .  A
O4845      C4859   1.277       .  A
O4846      C4851   1.263       .  A
O4847      C4850   1.269       .  A
O4848      C4860   1.271       .  A
O4849      C4862   1.269       .  A
C4850      O4855   1.271       .  A
C4850      C5004   1.483       .  S
C4851      C5074   1.457       .  S
O4853      C4856   1.276       .  A
O4854      C4856   1.267       .  A
C4856      C5116   1.485       .  S
O4857      C4862   1.266       .  A
O4858      C4860   1.269       .  A
C4859      O4861   1.271       .  A
C4859      C5021   1.486       .  S
C4860      C5144   1.491       .  S
C4862      C4990   1.484       .  S
C4863      C4965   1.499       .  S
C4863      C4868   1.420       .  A
C4864      C4976   1.494       .  S
C4865      C4937   1.495       .  S
C4866      C4948   1.497       .  S
C4867      C4906   1.496       .  S
C4867      C4868   1.417       .  A
C4868      C4920   1.489       .  S
C4869      C5049   1.488       .  S
C4869      N4870   1.354       .  A
C4869      N4874   1.370       .  A
N4870      C4871   1.350       .  A
C4871      C4962   1.470       .  S
N4872      C4873   1.358       .  A
C4873      C5357   1.482       .  S
C4875      C5018   1.493       .  S
C4875      N4880   1.357       .  A
N4876      C4877   1.367       .  A
C4877      C5245   1.500       .  S
C4877      N4878   1.361       .  A
N4878      C4879   1.355       .  A
C4879      C4951   1.471       .  S
C4881      C5032   1.460       .  S
C4881      N4882   1.350       .  A
C4881      N4886   1.363   1_655  A
N4882      C4883   1.348   1_655  A
C4883      C4909   1.455       .  S
N4884      C4885   1.361       .  A
C4885      C5329   1.476       .  S
C4887      C5273   1.470       .  S
C4887      N4888   1.360       .  A
C4887      N4892   1.358       .  A
N4888      C4889   1.361       .  A
C4889      C4993   1.480       .  S
C4889      N4890   1.353       .  A
N4890      C4891   1.351       .  A
C4891      C4923   1.476       .  S
C4891      N4892   1.352       .  A
C4893      C5007   1.486       .  S
C4893      N4894   1.357       .  A
C4893      N4898   1.364       .  A
N4894      C4895   1.347       .  A
C4895      C4979   1.485       .  S
N4896      C4897   1.358       .  A
C4897      C5287   1.486       .  S
C4899      C5371   1.483       .  S
C4899      N4900   1.362       .  A
C4899      N4904   1.363       .  A
N4900      C4901   1.359       .  A
C4901      C5060   1.485       .  S
C4901      N4902   1.353       .  A
N4902      C4903   1.356       .  A
C4903      C4934   1.484       .  S
C4903      N4904   1.360       .  A
C4905      C4910   1.392       .  A
C4905      H4912   1.078       .  S
C4906      C4907   1.420       .  A
C4907      C4908   1.411       .  A
C4907      N4914   1.441       .  S
C4908      H4913   1.082       .  S
C4909      C4910   1.402       .  A
C4910      N4911   1.430       .  S
N4911      O4915   1.262       .  A
N4911      O4916   1.261   1_455  A
N4914      O4918   1.262       .  A
N4914      O4917   1.263       .  A
C4919      C4920   1.405       .  A
C4919      C4924   1.397       .  A
C4919      H4926   1.083       .  S
C4920      C4921   1.415       .  A
C4921      C4922   1.396       .  A
C4921      N4928   1.433       .  S
C4922      C4923   1.402       .  A
C4922      H4927   1.083       .  S
C4923      C4924   1.410       .  A
C4924      N4925   1.429       .  S
N4925      O4929   1.262       .  A
N4925      O4930   1.262       .  A
N4928      O4932   1.260       .  A
N4928      O4931   1.263       .  A
C4933      C4934   1.405       .  A
C4933      C4938   1.400       .  A
C4933      H4940   1.083       .  S
C4934      C4935   1.410       .  A
C4935      C4936   1.398       .  A
C4935      N4942   1.428       .  S
C4936      C4937   1.403       .  A
C4936      H4941   1.083       .  S
C4937      C4938   1.415       .  A
C4938      N4939   1.432       .  S
N4939      O4943   1.262       .  A
N4939      O4944   1.261       .  A
N4942      O4946   1.261       .  A
N4942      O4945   1.262       .  A
C4947      C4952   1.399       .  A
C4947      H4954   1.080       .  S
C4948      C4949   1.419       .  A
C4949      C4950   1.406       .  A
C4949      N4956   1.431       .  S
C4950      C4951   1.400       .  A
C4950      H4955   1.083       .  S
C4952      N4953   1.429       .  S
N4953      O4957   1.262   1_545  A
N4953      O4958   1.262       .  A
N4956      O4960   1.260       .  A
N4956      O4959   1.262       .  A
C4961      C4962   1.397       .  A
C4961      C4966   1.398       .  A
C4961      H4968   1.083       .  S
C4963      C4964   1.397       .  A
C4963      N4970   1.430       .  S
C4964      H4969   1.080       .  S
C4965      C4966   1.415       .  A
C4966      N4967   1.429       .  S
N4967      O4971   1.261       .  A
N4967      O4972   1.262       .  A
N4970      O4974   1.262       .  A
N4970      O4973   1.262   1_565  A
C4975      C4976   1.398       .  A
C4975      C4980   1.394       .  A
C4975      H4982   1.066       .  S
C4977      C4978   1.401       .  A
C4977      N4984   1.431       .  S
C4978      H4983   1.078       .  S
C4979      C4980   1.416       .  A
C4980      N4981   1.428       .  S
N4981      O4985   1.262       .  A
N4981      O4986   1.262       .  A
N4984      O4988   1.261       .  A
N4984      O4987   1.262   1_655  A
C4989      C4990   1.405       .  A
C4989      C4994   1.388       .  A
C4989      H4996   1.084       .  S
C4990      C4991   1.413       .  A
C4991      C4992   1.404       .  A
C4991      N4998   1.427       .  S
C4992      C4993   1.406       .  A
C4992      H4997   1.083       .  S
C4993      C4994   1.415       .  A
C4994      N4995   1.431       .  S
N4995      O4999   1.261       .  A
N4995      O5000   1.262       .  A
N4998      O5002   1.262       .  A
N4998      O5001   1.261       .  A
C5003      C5004   1.409       .  A
C5003      C5008   1.408       .  A
C5003      H5010   1.083       .  S
C5004      C5005   1.412       .  A
C5005      C5006   1.388       .  A
C5005      N5012   1.431       .  S
C5006      C5007   1.402       .  A
C5006      H5011   1.078       .  S
C5007      C5008   1.413       .  A
C5008      N5009   1.428       .  S
N5009      O5013   1.261       .  A
N5009      O5014   1.261       .  A
N5012      O5016   1.262       .  A
N5012      O5015   1.261       .  A
C5017      C5018   1.408       .  A
C5017      C5022   1.411       .  A
C5017      H5024   1.083       .  S
C5018      C5019   1.418       .  A
C5019      C5020   1.394       .  A
C5019      N5026   1.430       .  S
C5020      C5021   1.399       .  A
C5020      H5025   1.084       .  S
C5021      C5022   1.415       .  A
C5022      N5023   1.428       .  S
N5023      O5027   1.262       .  A
N5023      O5028   1.262       .  A
N5026      O5030   1.262       .  A
N5026      O5029   1.262       .  A
C5031      C5032   1.402       .  A
C5031      C5036   1.401       .  A
C5031      H5038   1.084       .  S
C5032      C5033   1.404       .  A
C5033      C5034   1.394       .  A
C5033      N5040   1.429       .  S
C5034      C5035   1.404       .  A
C5034      H5039   1.084       .  S
C5035      C5036   1.410       .  A
C5036      N5037   1.430       .  S
N5037      O5041   1.262       .  A
N5037      O5042   1.262       .  A
N5040      O5044   1.260   1_655  A
N5040      O5043   1.262       .  A
C5045      C5046   1.404       .  A
C5045      C5050   1.399       .  A
C5045      H5052   1.083       .  S
C5046      C5047   1.424       .  A
C5047      C5048   1.406       .  A
C5047      N5054   1.429       .  S
C5048      C5049   1.401       .  A
C5048      H5053   1.084       .  S
C5049      C5050   1.417       .  A
C5050      N5051   1.431       .  S
N5051      O5055   1.262       .  A
N5051      O5056   1.262       .  A
N5054      O5058   1.262       .  A
N5054      O5057   1.262       .  A
C5059      C5060   1.405       .  A
C5059      C5064   1.404       .  A
C5059      H5066   1.083       .  S
C5060      C5061   1.415       .  A
C5061      C5062   1.394       .  A
C5061      N5068   1.431       .  S
C5062      C5063   1.405       .  A
C5062      H5067   1.084       .  S
C5063      C5064   1.418       .  A
C5064      N5065   1.431       .  S
N5065      O5069   1.261       .  A
N5065      O5070   1.262       .  A
N5068      O5072   1.262       .  A
N5068      O5071   1.261       .  A
C5073      C5074   1.398       .  A
C5073      C5078   1.393       .  A
C5073      H5080   1.049       .  S
C5074      C5075   1.404       .  A
C5075      C5076   1.408       .  A
C5075      N5082   1.429       .  S
C5076      C5077   1.408       .  A
C5076      H5081   1.025       .  S
C5077      C5078   1.403       .  A
C5078      N5079   1.428       .  S
N5079      O5083   1.261       .  A
N5079      O5084   1.260       .  A
N5082      O5086   1.261       .  A
N5082      O5085   1.261       .  A
C5087      C5088   1.405       .  A
C5087      C5092   1.409       .  A
C5087      H5094   1.083       .  S
C5088      C5089   1.414       .  A
C5089      C5090   1.398       .  A
C5089      N5096   1.430       .  S
C5090      C5091   1.399       .  A
C5090      H5095   1.084       .  S
C5091      C5092   1.411       .  A
C5092      N5093   1.426       .  S
N5093      O5097   1.262       .  A
N5093      O5098   1.259       .  A
N5096      O5100   1.261       .  A
N5096      O5099   1.262       .  A
C5101      C5102   1.399       .  A
C5101      C5106   1.393       .  A
C5101      H5108   1.084       .  S
C5102      C5103   1.412       .  A
C5103      C5104   1.404       .  A
C5103      N5110   1.425       .  S
C5104      C5105   1.404       .  A
C5104      H5109   1.084       .  S
C5105      C5106   1.418       .  A
C5106      N5107   1.428       .  S
N5107      O5111   1.262       .  A
N5107      O5112   1.259       .  A
N5110      O5114   1.261       .  A
N5110      O5113   1.262       .  A
C5115      C5116   1.408       .  A
C5115      C5120   1.401       .  A
C5115      H5122   1.083       .  S
C5116      C5117   1.416       .  A
C5117      C5118   1.392       .  A
C5117      N5124   1.430       .  S
C5118      C5119   1.403       .  A
C5118      H5123   1.083       .  S
C5119      C5120   1.411       .  A
C5120      N5121   1.429       .  S
N5121      O5125   1.261       .  A
N5121      O5126   1.262       .  A
N5124      O5128   1.262       .  A
N5124      O5127   1.262       .  A
C5129      C5130   1.410       .  A
C5129      C5134   1.409       .  A
C5129      H5136   1.082       .  S
C5130      C5131   1.412       .  A
C5131      C5132   1.392       .  A
C5131      N5138   1.428       .  S
C5132      C5133   1.397       .  A
C5132      H5137   1.086       .  S
C5133      C5134   1.410       .  A
C5134      N5135   1.429       .  S
N5135      O5139   1.262       .  A
N5135      O5140   1.261       .  A
N5138      O5142   1.261       .  A
N5138      O5141   1.262       .  A
C5143      C5144   1.407       .  A
C5143      C5148   1.401       .  A
C5143      H5150   1.083       .  S
C5144      C5145   1.413       .  A
C5145      C5146   1.400       .  A
C5145      N5152   1.429       .  S
C5146      C5147   1.410       .  A
C5146      H5151   1.083       .  S
C5147      C5148   1.409       .  A
C5148      N5149   1.422       .  S
N5149      O5153   1.261       .  A
N5152      O5156   1.262       .  A
N5152      O5155   1.262       .  A
C5157      C5158   1.394       .  A
C5157      C5162   1.390       .  A
C5157      H5164   1.075       .  S
C5158      C5159   1.415       .  A
C5159      C5160   1.401       .  A
C5159      N5166   1.431       .  S
C5160      C5161   1.402       .  A
C5160      H5165   1.083       .  S
C5161      C5162   1.407       .  A
C5162      N5163   1.429       .  S
N5163      O5167   1.262       .  A
N5163      O5168   1.262       .  A
N5166      O5170   1.260       .  A
N5166      O5169   1.261       .  A
C5171      C5176   1.396       .  A
C5171      H5178   1.076       .  S
C5172      C5173   1.415       .  A
C5173      C5174   1.403       .  A
C5173      N5180   1.431       .  S
C5174      C5175   1.403       .  A
C5174      H5179   1.082       .  S
C5176      N5177   1.429       .  S
N5177      O5181   1.261       .  A
N5177      O5182   1.262       .  A
N5180      O5184   1.261   1_455  A
N5180      O5183   1.261       .  A
C5185      C5190   1.398       .  A
C5185      H5192   1.079       .  S
C5186      C5187   1.415       .  A
C5187      C5188   1.398       .  A
C5187      N5194   1.430       .  S
C5188      C5189   1.399       .  A
C5188      H5193   1.083       .  S
C5190      N5191   1.428       .  S
N5191      O5195   1.262       .  A
N5191      O5196   1.262       .  A
N5194      O5198   1.261   1_565  A
N5194      O5197   1.262       .  A
C5199      C5200   1.399       .  A
C5199      C5204   1.395       .  A
C5199      H5206   1.082       .  S
C5201      C5202   1.400       .  A
C5201      N5208   1.432       .  S
C5202      H5207   1.083       .  S
C5203      C5204   1.416       .  A
C5204      N5205   1.428       .  S
N5205      O5209   1.262       .  A
N5205      O5210   1.262       .  A
N5208      O5212   1.262       .  A
N5208      O5211   1.261       .  A
C5213      C5214   1.396       .  A
C5213      C5218   1.391       .  A
C5213      H5220   1.083       .  S
C5214      C5215   1.418       .  A
C5215      C5216   1.405       .  A
C5215      N5222   1.433       .  S
C5216      C5217   1.408       .  A
C5216      H5221   1.083       .  S
C5217      C5218   1.414       .  A
C5218      N5219   1.424       .  S
N5219      O5223   1.262       .  A
N5219      O5224   1.262       .  A
N5222      O5226   1.261       .  A
N5222      O5225   1.262       .  A
C5227      C5232   1.397       .  A
C5227      H5234   1.085       .  S
C5228      C5229   1.406   1_565  A
C5229      C5230   1.396       .  A
C5229      N5236   1.430       .  S
C5230      C5231   1.403   1_545  A
C5230      H5235   1.067       .  S
C5232      N5233   1.428       .  S
N5233      O5237   1.261       .  A
N5233      O5238   1.261       .  A
N5236      O5240   1.262   1_545  A
N5236      O5239   1.262       .  A
C5241      C5242   1.402       .  A
C5241      C5246   1.395       .  A
C5241      H5248   1.084       .  S
C5242      C5243   1.418       .  A
C5243      C5244   1.415       .  A
C5243      N5250   1.429       .  S
C5244      C5245   1.411       .  A
C5244      H5249   1.083       .  S
C5245      C5246   1.415       .  A
C5246      N5247   1.428       .  S
N5247      O5251   1.262       .  A
N5247      O5252   1.262       .  A
N5250      O5254   1.262       .  A
N5250      O5253   1.262       .  A
C5255      C5256   1.413       .  A
C5255      C5260   1.406       .  A
C5255      H5262   1.084       .  S
C5256      C5257   1.411       .  A
C5257      C5258   1.395       .  A
C5257      N5264   1.429       .  S
C5258      C5259   1.405       .  A
C5258      H5263   1.080       .  S
C5259      C5260   1.410       .  A
C5260      N5261   1.428       .  S
N5261      O5265   1.261       .  A
N5261      O5266   1.262       .  A
N5264      O5268   1.262       .  A
N5264      O5267   1.262       .  A
C5269      C5270   1.400       .  A
C5269      C5274   1.397       .  A
C5269      H5276   1.083       .  S
C5270      C5271   1.408       .  A
C5271      C5272   1.394       .  A
C5271      N5278   1.431       .  S
C5272      C5273   1.403       .  A
C5272      H5277   1.082       .  S
C5273      C5274   1.410       .  A
C5274      N5275   1.426       .  S
N5275      O5279   1.262       .  A
N5275      O5280   1.262       .  A
N5278      O5282   1.262       .  A
C5283      C5284   1.405       .  A
C5283      C5288   1.393       .  A
C5283      H5290   1.083       .  S
C5284      C5285   1.413       .  A
C5285      C5286   1.399       .  A
C5285      N5292   1.428       .  S
C5286      C5287   1.406       .  A
C5286      H5291   1.082       .  S
C5287      C5288   1.418       .  A
C5288      N5289   1.431       .  S
N5289      O5293   1.261       .  A
N5292      O5296   1.262       .  A
N5292      O5295   1.261       .  A
C5297      C5298   1.408       .  A
C5297      C5302   1.398       .  A
C5297      H5304   1.083       .  S
C5298      C5299   1.414       .  A
C5299      C5300   1.395       .  A
C5299      N5306   1.429       .  S
C5300      C5301   1.400       .  A
C5300      H5305   1.084       .  S
C5301      C5302   1.405       .  A
C5302      N5303   1.429       .  S
N5303      O5307   1.261       .  A
N5303      O5308   1.262       .  A
N5306      O5310   1.261       .  A
N5306      O5309   1.262       .  A
C5311      C5312   1.409       .  A
C5311      C5316   1.395       .  A
C5311      H5318   1.083       .  S
C5312      C5313   1.417       .  A
C5313      C5314   1.405       .  A
C5313      N5320   1.424       .  S
C5314      C5315   1.400       .  A
C5314      H5319   1.083       .  S
C5315      C5316   1.408       .  A
C5316      N5317   1.428       .  S
N5317      O5321   1.262       .  A
N5317      O5322   1.261       .  A
N5320      O5324   1.260       .  A
C5325      C5326   1.408       .  A
C5325      C5330   1.400       .  A
C5325      H5332   1.083       .  S
C5326      C5327   1.414       .  A
C5327      C5328   1.394       .  A
C5327      N5334   1.430       .  S
C5328      C5329   1.401       .  A
C5328      H5333   1.082       .  S
C5329      C5330   1.409       .  A
C5330      N5331   1.429       .  S
N5331      O5335   1.262       .  A
N5334      O5338   1.262       .  A
N5334      O5337   1.262       .  A
C5339      C5340   1.404       .  A
C5339      C5344   1.394       .  A
C5339      H5346   1.084       .  S
C5340      C5341   1.413       .  A
C5341      C5342   1.413       .  A
C5341      N5348   1.430       .  S
C5342      C5343   1.412       .  A
C5342      H5347   1.080       .  S
C5343      C5344   1.419       .  A
C5344      N5345   1.429       .  S
N5345      O5349   1.262       .  A
N5345      O5350   1.261       .  A
N5348      O5352   1.262       .  A
N5348      O5351   1.262       .  A
C5353      C5354   1.408       .  A
C5353      C5358   1.400       .  A
C5353      H5360   1.083       .  S
C5354      C5355   1.411       .  A
C5355      C5356   1.398       .  A
C5355      N5362   1.427       .  S
C5356      C5357   1.406       .  A
C5356      H5361   1.084       .  S
C5357      C5358   1.409       .  A
C5358      N5359   1.426       .  S
N5359      O5363   1.262   1_565  A
N5359      O5364   1.262       .  A
N5362      O5366   1.261       .  A
N5362      O5365   1.262       .  A
C5367      C5368   1.408       .  A
C5367      C5372   1.397       .  A
C5367      H5374   1.084       .  S
C5368      C5369   1.417       .  A
C5369      C5370   1.404       .  A
C5369      N5376   1.429       .  S
C5370      C5371   1.405       .  A
C5370      H5375   1.084       .  S
C5371      C5372   1.409       .  A
C5372      N5373   1.430       .  S
N5373      O5377   1.262       .  A
N5373      O5378   1.261       .  A
N5376      O5380   1.262       .  A
N5376      O5379   1.262       .  A
C5381      C5382   1.401       .  A
C5381      C5386   1.402       .  A
C5381      H5388   1.084       .  S
C5382      C5383   1.416       .  A
C5383      C5384   1.408       .  A
C5383      N5390   1.430       .  S
C5384      C5385   1.404       .  A
C5384      H5389   1.083       .  S
C5385      C5386   1.414       .  A
C5386      N5387   1.429       .  S
N5387      O5391   1.262       .  A
N5387      O5392   1.262       .  A
N5390      O5394   1.261       .  A
N5390      O5393   1.262       .  A
C5395      C5396   1.396       .  A
C5395      C5400   1.395       .  A
C5395      H5402   1.085       .  S
C5396      C5397   1.411       .  A
C5397      C5398   1.404       .  A
C5397      N5404   1.429       .  S
C5398      C5399   1.406       .  A
C5398      H5403   1.081       .  S
C5399      C5400   1.414       .  A
C5400      N5401   1.431       .  S
N5401      O5405   1.262       .  A
N5401      O5406   1.263       .  A
N5404      O5408   1.262       .  A
N5404      O5407   1.262       .  A
