geometry optimzed in LAMMPS
_audit_creation_date              2020-11-30 
_audit_creation_method            'lammps2cif' 
_symmetry_space_group_name_H-M    'P1' 
_symmetry_Int_Tables_number       1 
_symmetry_cell_setting            triclinic 
loop_ 
_symmetry_equiv_pos_as_xyz 
  x,y,z 
_cell_length_a                    37.27728949 
_cell_length_b                    36.840682578189075 
_cell_length_c                    32.50049431604358 
_cell_angle_alpha                 89.86467579743253 
_cell_angle_beta                  88.55256880812655 
_cell_angle_gamma                 119.01772150863702 
loop_ 
_atom_site_label 
_atom_site_type_symbol 
_atom_site_fract_x 
_atom_site_fract_y 
_atom_site_fract_z 
_atom_site_charge 
C1          C  0.36010126  0.21657298  0.06116920     0.31300
C2          C  0.35834242  0.21411081  0.48252815     0.31300
C3          C  0.32101625  0.18695035  0.03929499    -0.04900
C4          C  0.37442976  0.25905679  0.04028258    -0.05700
C5          C  0.39285833  0.20477481  0.04588017    -0.05600
C6          C  0.31480547  0.18585808  0.49899583    -0.04900
C7          C  0.36939561  0.25696621  0.49888394    -0.05700
C8          C  0.38432750  0.20015664  0.50724343    -0.05600
C9          C  0.27685157  0.15994669  0.48328539    -0.31000
N10         N  0.24869035  0.14673412  0.51467165     0.15500
C11         C  0.27986188  0.16194391  0.04949125    -0.31000
H12         H  0.26587906  0.15783455  0.07992476     0.17500
C13         C  0.39796220  0.29576696  0.48446435    -0.30000
N14         N  0.41724617  0.32320307  0.01656354     0.14300
C15         C  0.40067612  0.29980786  0.05117939    -0.29900
C16         C  0.40074876  0.17386057  0.50096350    -0.30200
N17         N  0.41011776  0.16367579  0.53789602     0.14800
H18         H  0.40337704  0.16104077  0.47189948     0.17400
C19         C  0.40711110  0.17959877  0.06222609    -0.30200
H20         H  0.40654923  0.17159217  0.09435110     0.17400
H21         H  0.41009532  0.31112823  0.08186637     0.17400
H22         H  0.26990433  0.15186036  0.45137283     0.17500
H23         H  0.41067738  0.30384224  0.45335198     0.17400
C24         C  0.35580960  0.20653372  0.31232012     0.31300
C25         C  0.36135549  0.21108573  0.23120662     0.31300
C26         C  0.31465040  0.19088158  0.29187654    -0.04900
C27         C  0.38239317  0.25007803  0.29450425    -0.05700
C28         C  0.37309645  0.18060896  0.29252385    -0.05600
C29         C  0.31771637  0.19362481  0.24983322    -0.04900
C30         C  0.38623375  0.25303528  0.25251907    -0.05700
C31         C  0.37751655  0.18353856  0.25039055    -0.05600
C32         C  0.27868098  0.17099606  0.23530006    -0.31000
N33         N  0.25196602  0.15446888  0.26779591     0.15500
C34         C  0.27374903  0.16567412  0.30275971    -0.32800
H35         H  0.26145666  0.15378508  0.33334577     0.17500
C36         C  0.40849837  0.29507727  0.24266393    -0.30000
N37         N  0.41607930  0.31690627  0.27812965     0.14300
C38         C  0.40030448  0.28949560  0.30995856    -0.29900
C39         C  0.39256684  0.15702222  0.23866320    -0.30200
N40         N  0.39484280  0.13721359  0.27306933     0.14800
H41         H  0.39953674  0.15111171  0.20770935     0.17400
C42         C  0.38230714  0.15094738  0.30583988    -0.30200
H43         H  0.37930932  0.13933655  0.33708991     0.17400
H44         H  0.40007028  0.29771135  0.34189662     0.17400
H45         H  0.27058658  0.16435971  0.20338592     0.17500
H46         H  0.41641650  0.30878392  0.21208310     0.17400
C47         C  0.14552317  0.07322559  0.03606266     0.77700
Tb48       Tb  0.46997197  0.01701712  0.03486332     1.80700
O49         O  0.12312777  0.04932027  0.06453092    -0.50300
O50         O  0.06387601  0.46144705  0.04416677    -0.57800
C51         C  0.05299067  0.09856000  0.01786231     0.93500
O52         O  0.45941475  0.07639654  0.55259354    -0.57300
Tb53       Tb  0.06105097  0.01796680  0.02977097     1.78100
O54         O  0.41073916  0.46528406  0.99177309    -0.57800
O55         O  0.49338106  0.45400945  0.00521328    -0.76600
O56         O  0.06430465  0.08159228  0.04436130    -0.75900
O57         O  0.04109014  0.01519714  0.45303743    -0.61200
C58         C  0.46689122  0.43854692  0.03401127     0.93100
O59         O  0.48445225  0.01585824  0.11181367    -0.73100
C60         C  0.38738045  0.95931957  0.05377197     0.76600
C61         C  0.08620584  0.46168478  0.01423107     0.77500
O62         O  0.11643711  0.06928653  0.50603536    -0.58400
O63         O  0.09036524  0.48717860  0.98628347    -0.50300
O64         O  0.47853171  0.01177794  0.45568873    -0.76400
O65         O  0.04438736  0.01528130  0.10580724    -0.60400
C66         C  0.01506075  0.01664788  0.12723214     0.91300
C67         C  0.01103311  0.01163347  0.42987283     0.92600
C68         C  0.43440398  0.07434594  0.52585508     0.76900
O69         O  0.41656517  0.96398177  0.07575115    -0.49700
O70         O  0.46703203  0.57813610  0.49026399    -0.50800
O71         O  0.46036301  0.46262871  0.05633728    -0.63700
O72         O  0.02404349  0.07575882  0.99535295    -0.64800
C73         C  0.13952130  0.07821048  0.28869702     0.77700
Tb74       Tb  0.46905181  0.01241115  0.28697775     1.80700
O75         O  0.11125324  0.06495901  0.31609328    -0.50300
O76         O  0.06120072  0.46027714  0.29552034    -0.57800
C77         C  0.05183343  0.09196329  0.27786292     0.93500
O78         O  0.43244655  0.04832172  0.29526095    -0.57300
Tb79       Tb  0.06020163  0.01421715  0.27477000     1.78100
O80         O  0.39729638  0.45991335  0.25600520    -0.57800
O81         O  0.50311612  0.45787000  0.23672307    -0.76600
O82         O  0.05650971  0.07118806  0.24988426    -0.75900
O83         O  0.04570658  0.01675717  0.19891138    -0.61200
C84         C  0.47316271  0.43352143  0.25910842     0.93100
O85         O  0.48260497  0.01534888  0.36265899    -0.73100
C86         C  0.38529724  0.95636374  0.30039022     0.76600
C87         C  0.08783689  0.46247018  0.26929788     0.77500
O88         O  0.12813933  0.06015676  0.25483794    -0.58400
O89         O  0.09858799  0.49173977  0.24355450    -0.50300
O90         O  0.48405407  0.01194099  0.20847486    -0.76400
O91         O  0.04120675  0.01052948  0.35382524    -0.60400
C92         C  0.01231161  0.01159843  0.37764181     0.91300
C93         C  0.01481460  0.01528532  0.17918941     0.92600
C94         C  0.44409429  0.06922971  0.26217687     0.76900
O95         O  0.40589121  0.98590464  0.32391831    -0.49700
O96         O  0.45810560  0.56056669  0.22966723    -0.50800
O97         O  0.46037048  0.44855590  0.28692873    -0.63700
O98         O  0.02601066  0.07216924  0.30633592    -0.64800
C99         C  0.16958661  0.32118864  0.00317509     0.31300
C100        C  0.16609956  0.31959573  0.08396321     0.31300
C101        C  0.15411416  0.34939523  0.02233619    -0.04900
C102        C  0.14236949  0.27843601  0.02250818    -0.05700
C103        C  0.21157168  0.33639849  0.02268735    -0.05600
C104        C  0.15239136  0.34855046  0.06443436    -0.04900
C105        C  0.14067606  0.27778888  0.06417996    -0.05700
C106        C  0.20971348  0.33558159  0.06554646    -0.05600
C107        C  0.13776108  0.37478255  0.07702300    -0.31000
N108        N  0.12953759  0.39075418  0.04324454     0.15500
C109        C  0.13991243  0.37578440  0.00938561    -0.31000
H110        H  0.13389109  0.37735741  0.47457975     0.17500
C111        C  0.12072703  0.23692347  0.07726096    -0.30000
N112        N  0.10973644  0.21263468  0.04370641     0.14300
C113        C  0.12300828  0.23775079  0.00969388    -0.29900
C114        C  0.24696905  0.36705073  0.07829477    -0.30200
N115        N  0.27176832  0.38550627  0.04497748     0.14800
H116        H  0.25421459  0.37800539  0.10946606     0.17400
C117        C  0.24981541  0.36861332  0.01107747    -0.30200
H118        H  0.25732701  0.37998569  0.48062641     0.17400
H119        H  0.11914529  0.22240696  0.47948013     0.17400
H120        H  0.13274442  0.38142065  0.10841632     0.17500
H121        H  0.11656493  0.22564130  0.10876717     0.17400
C122        C  0.15426566  0.31110073  0.25262296     0.31300
C123        C  0.16303542  0.31784440  0.33274058     0.31300
C124        C  0.13045256  0.33062013  0.27376420    -0.04900
C125        C  0.14043385  0.27039462  0.27567949    -0.05700
C126        C  0.19854236  0.33946174  0.26585803    -0.05600
C127        C  0.13492992  0.33374011  0.31586896    -0.04900
C128        C  0.14481609  0.27361322  0.31704988    -0.05700
C129        C  0.20330258  0.34312046  0.30753516    -0.05600
C130        C  0.12470208  0.36312832  0.32926810    -0.31000
N131        N  0.11417287  0.37812828  0.29652141     0.15500
C132        C  0.11957920  0.36015276  0.26222555    -0.31000
H133        H  0.11756998  0.36924560  0.23108964     0.17500
C134        C  0.12367057  0.23387245  0.33380457    -0.30000
N135        N  0.10712823  0.20677497  0.30266401     0.14300
C136        C  0.11688573  0.22907388  0.26686802    -0.29900
C137        C  0.24414294  0.37124161  0.31386777    -0.30200
N138        N  0.26422569  0.38367789  0.27659296     0.14800
H139        H  0.25798786  0.38183076  0.34333513     0.17400
C140        C  0.23636318  0.36471701  0.24707704    -0.30200
H141        H  0.24322013  0.36930692  0.21430684     0.17400
H142        H  0.10538099  0.21671300  0.23694576     0.17400
H143        H  0.12757280  0.37499206  0.36015164     0.17500
H144        H  0.11893864  0.22548131  0.36620534     0.17400
C145        C  0.13002180  0.30426291  0.44103819    -0.12100
C146        C  0.16690459  0.31334208  0.45902327     0.10100
C147        C  0.19976431  0.31506010  0.43598353    -0.12100
C148        C  0.19875311  0.31681289  0.39419458    -0.12100
C149        C  0.16525604  0.31741739  0.37657960     0.10100
C150        C  0.12919497  0.30640561  0.39960025    -0.12100
H151        H  0.10252591  0.29723588  0.45915881     0.14100
H152        H  0.22570152  0.31477448  0.44979907     0.14100
H153        H  0.22356706  0.31708180  0.37599818     0.14100
H154        H  0.10053846  0.29961165  0.38572756     0.14100
C155        C  0.18521535  0.30154908  0.14851195    -0.12100
C156        C  0.16064303  0.31397145  0.12765179     0.10100
C157        C  0.12431482  0.30959132  0.14607377    -0.12100
C158        C  0.11941270  0.30507906  0.18772684    -0.12100
C159        C  0.15029833  0.30352870  0.20934133     0.10100
C160        C  0.17901411  0.29486538  0.18977903    -0.12100
H161        H  0.20931782  0.29772449  0.13329053     0.14100
H162        H  0.10042530  0.31048394  0.12859990     0.14100
H163        H  0.09264747  0.30397620  0.20265683     0.14100
H164        H  0.19946616  0.28768287  0.20685375     0.14100
C165        C  0.07622944  0.13739833  0.27566918    -0.15200
C166        C  0.08127423  0.16252928  0.30735790    -0.30300
H167        H  0.09271827  0.15049826  0.24672319     0.13900
H168        H  0.06724828  0.14944761  0.33731026     0.14400
C169        C  0.33386966  0.43252883  0.29735943    -0.15200
C170        C  0.30755840  0.41052147  0.26804882    -0.30300
H171        H  0.32748667  0.92799539  0.33752760     0.13900
H172        H  0.31916799  0.41302676  0.23655938     0.14400
C173        C  0.10439418  0.43347488  0.26752914    -0.15200
C174        C  0.09987613  0.40799965  0.29909494    -0.30300
H175        H  0.12117337  0.43359452  0.23971036     0.13900
H176        H  0.08549974  0.41015447  0.32783242     0.14400
C177        C  0.09223901  0.16830614  0.04555465    -0.15200
C178        C  0.07168548  0.14399444  0.01432416    -0.30300
H179        H  0.09443700  0.15413134  0.07409075     0.13900
H180        H  0.06658819  0.15741443  0.98679366     0.14400
C181        C  0.33973665  0.42903337  0.01423407    -0.15200
C182        C  0.31273707  0.42001524  0.04602189    -0.30300
H183        H  0.33649767  0.90914930  0.09034915     0.13900
H184        H  0.32273165  0.43730144  0.07435029     0.14400
C185        C  0.10982600  0.41609755  0.04495506    -0.15200
C186        C  0.10635072  0.43577814  0.01174711    -0.30300
H187        H  0.09770451  0.41962980  0.07455988     0.13900
H188        H  0.11998328  0.43444616  0.98231357     0.14400
C189        C  0.40492656  0.10450993  0.27693158    -0.15200
C190        C  0.43080786  0.09960552  0.25108517    -0.30300
H191        H  0.39364928  0.08521294  0.30468667     0.13900
H192        H  0.44376309  0.11918522  0.22378951     0.14400
C193        C  0.43274799  0.36096253  0.28284589    -0.15200
C194        C  0.45480399  0.38846919  0.25294954    -0.30300
H195        H  0.42832605  0.37221559  0.31241360     0.13900
H196        H  0.46176265  0.37799829  0.22417603     0.14400
C197        C  0.20926629  0.12512379  0.26351458    -0.15200
C198        C  0.18196478  0.11080740  0.29534206    -0.30300
H199        H  0.19897081  0.11390046  0.23279296     0.13900
H200        H  0.19078481  0.12231704  0.32618723     0.14400
C201        C  0.42600523  0.13546468  0.54562219    -0.15200
C202        C  0.42019273  0.10506305  0.51932925    -0.30300
H203        H  0.44098945  0.13754404  0.57445059     0.13900
H204        H  0.45567913  0.13364357  0.97980777     0.14400
C205        C  0.44487029  0.36697538  0.01353165    -0.15200
C206        C  0.44287392  0.39337208  0.04065112    -0.30300
H207        H  0.45970746  0.37635234  0.48519052     0.13900
H208        H  0.42125487  0.38160408  0.06671270     0.14400
C209        C  0.18978733  0.10092749  0.04115162    -0.15200
C210        C  0.21593416  0.11987042  0.00926199    -0.30300
H211        H  0.20123103  0.10391940  0.07200218     0.13900
H212        H  0.19305892  0.11697829  0.47922026     0.14400
C213        C  0.39322325  0.21468340  0.41713867    -0.12100
C214        C  0.36124978  0.21609005  0.43844329     0.10100
C215        C  0.33262671  0.22338843  0.41812789    -0.12100
C216        C  0.32955956  0.21833308  0.37688122    -0.12100
C217        C  0.35635750  0.20783688  0.35630661     0.10100
C218        C  0.39110973  0.21127364  0.37555215    -0.12100
H219        H  0.41992142  0.21724668  0.43193671     0.14100
H220        H  0.31133490  0.23073369  0.43454939     0.14100
H221        H  0.30699599  0.22336145  0.36129356     0.14100
H222        H  0.41669146  0.21175391  0.35857613     0.14100
C223        C  0.35148866  0.24481673  0.12741390    -0.12100
C224        C  0.35187394  0.21289809  0.10504214     0.10100
C225        C  0.34320512  0.17558763  0.12440722    -0.12100
C226        C  0.34768654  0.17538011  0.16577380    -0.12100
C227        C  0.35928093  0.21210597  0.18712635     0.10100
C228        C  0.35485171  0.24418252  0.16898980    -0.12100
H229        H  0.34866599  0.26985155  0.11334127     0.14100
H230        H  0.33595414  0.14779035  0.10724879     0.14100
H231        H  0.34120444  0.14655656  0.18076650     0.14100
H232        H  0.35311000  0.26809178  0.18667873     0.14100
C233        C  0.34858055  0.21656116  0.56279282     0.31300
C234        C  0.36839967  0.21610908  0.98058178     0.31300
C235        C  0.30965279  0.18791732  0.54024396    -0.04900
C236        C  0.36484275  0.25891593  0.54101981    -0.05700
C237        C  0.38015017  0.20261128  0.54924477    -0.05600
C238        C  0.32552655  0.18590596  0.99788213    -0.04900
C239        C  0.37834735  0.25817477  0.99811761    -0.05700
C240        C  0.39645813  0.20346660  0.00326694    -0.05600
C241        C  0.28737749  0.15960760  0.98261477    -0.31000
N242        N  0.25950700  0.14536220  0.01432004     0.15500
C243        C  0.26845540  0.16373382  0.54992818    -0.31000
H244        H  0.25403455  0.16009315  0.58007664     0.17500
C245        C  0.40522330  0.29775662  0.98415326    -0.30000
N246        N  0.41082261  0.32171081  0.51641771     0.14300
C247        C  0.39270237  0.29932035  0.55130732    -0.29900
C248        C  0.40912041  0.17429496  0.99534664    -0.30200
N249        N  0.41713592  0.16146061  0.03131814     0.14800
H250        H  0.40754027  0.15943544  0.96629396     0.17400
C251        C  0.39800026  0.18147669  0.56760046    -0.30200
H252        H  0.39874921  0.17606218  0.60021768     0.17400
H253        H  0.40209049  0.31084602  0.58192813     0.17400
H254        H  0.27998587  0.15245656  0.95062695     0.17500
H255        H  0.41728669  0.30687863  0.95293930     0.17400
C256        C  0.35016185  0.20227782  0.81228774     0.31300
C257        C  0.35424468  0.20865253  0.73146569     0.31300
C258        C  0.30989066  0.19443285  0.79377423    -0.04900
C259        C  0.38206631  0.24470831  0.79488016    -0.05700
C260        C  0.35965145  0.17123951  0.79081842    -0.05600
C261        C  0.31234326  0.19809513  0.75138307    -0.04900
C262        C  0.38482775  0.24847271  0.75284896    -0.05700
C263        C  0.36407375  0.17534508  0.74886568    -0.05600
C264        C  0.27332653  0.17398864  0.73737200    -0.31000
N265        N  0.24728903  0.15591166  0.76975723     0.15500
C266        C  0.26937298  0.16675814  0.80438122    -0.32800
H267        H  0.25797819  0.15195630  0.83424202     0.17500
C268        C  0.40643208  0.29066141  0.74363120    -0.30000
N269        N  0.41515089  0.31196108  0.77943638     0.14300
C270        C  0.40012541  0.28404320  0.81082360    -0.29900
C271        C  0.37840322  0.14844063  0.73604359    -0.30200
N272        N  0.37975662  0.12710055  0.76970841     0.14800
H273        H  0.38728458  0.14476463  0.70503784     0.17400
C274        C  0.36745819  0.14031541  0.80302352    -0.30200
H275        H  0.36602439  0.12923105  0.83423326     0.17400
H276        H  0.39926098  0.29180908  0.84281708     0.17400
H277        H  0.26513971  0.16639469  0.70559477     0.17500
H278        H  0.41217708  0.30484931  0.71334182     0.17400
C279        C  0.13681495  0.07050881  0.53696664     0.77700
Tb280      Tb  0.46194789  0.01557050  0.53163869     1.80700
O281        O  0.11588811  0.04415804  0.56444505    -0.50300
O282        O  0.08430496  0.47507589  0.54574229    -0.57800
C283        C  0.04476837  0.09461546  0.52075234     0.93500
O284        O  0.43599832  0.05593806  0.04598253    -0.57300
Tb285      Tb  0.05311125  0.01457695  0.53148538     1.78100
O286        O  0.40820819  0.46292794  0.49413337    -0.57800
O287        O  0.49193043  0.45315596  0.50570259    -0.76600
O288        O  0.05444038  0.07690301  0.54794498    -0.75900
O289        O  0.04399399  0.01688947  0.95168534    -0.61200
C290        C  0.46476490  0.43714496  0.53394966     0.93100
O291        O  0.47890681  0.01737049  0.60985422    -0.73100
C292        C  0.37915413  0.95767736  0.55049670     0.76600
C293        C  0.07849343  0.45411333  0.51372496     0.77500
O294        O  0.12610427  0.07029420  0.00382810    -0.58400
O295        O  0.05913759  0.46217774  0.48710346    -0.50300
O296        O  0.48399915  0.01504668  0.95715626    -0.76400
O297        O  0.03775117  0.01375290  0.60707771    -0.60400
C298        C  0.00812432  0.01494377  0.62787902     0.91300
C299        C  0.01357473  0.01462744  0.92956236     0.92600
C300        C  0.45294378  0.08171406  0.01678778     0.76900
O301        O  0.40737921  0.96823411  0.57594512    -0.49700
O302        O  0.46266943  0.57641387  0.98834144    -0.50800
O303        O  0.45768379  0.46065244  0.55640646    -0.63700
O304        O  0.01635469  0.07233700  0.49739142    -0.64800
C305        C  0.13489113  0.08061487  0.78849510     0.77700
Tb306      Tb  0.46404002  0.01127290  0.78759118     1.80700
O307        O  0.10543313  0.07039406  0.81410336    -0.50300
O308        O  0.05764487  0.46114004  0.79564420    -0.57800
C309        C  0.04583466  0.09468846  0.77675805     0.93500
O310        O  0.42879978  0.04864546  0.79688235    -0.57300
Tb311      Tb  0.05583888  0.01722389  0.77391038     1.78100
O312        O  0.39419083  0.45779958  0.75721946    -0.57800
O313        O  0.50056974  0.45218629  0.73870778    -0.76600
O314        O  0.05111046  0.07389073  0.74910611    -0.75900
O315        O  0.04081357  0.01921868  0.69870932    -0.61200
C316        C  0.46971494  0.42854693  0.76050563     0.93100
O317        O  0.48211754  0.01568799  0.86276177    -0.73100
C318        C  0.37977900  0.95639094  0.80087530     0.76600
C319        C  0.08417456  0.46320550  0.76936171     0.77500
O320        O  0.12482188  0.06000427  0.75584198    -0.58400
O321        O  0.09488316  0.49232687  0.74347126    -0.50300
O322        O  0.47698585  0.01092028  0.70878868    -0.76400
O323        O  0.04044802  0.01323773  0.85281488    -0.60400
C324        C  0.01240594  0.01423079  0.87757290     0.91300
C325        C  0.00870160  0.01538779  0.67970893     0.92600
C326        C  0.43782500  0.06718001  0.76238963     0.76900
O327        O  0.40075384  0.98600104  0.82427728    -0.49700
O328        O  0.45203884  0.55368792  0.72848590    -0.50800
O329        O  0.45607073  0.44400683  0.78710439    -0.63700
O330        O  0.02018308  0.07499270  0.80542991    -0.64800
C331        C  0.16801677  0.31689024  0.50285122     0.31300
C332        C  0.16338134  0.31684782  0.58358804     0.31300
C333        C  0.15023745  0.34385926  0.52047932    -0.04900
C334        C  0.14202366  0.27424991  0.52283502    -0.05700
C335        C  0.20993402  0.33437968  0.52315261    -0.05600
C336        C  0.14809322  0.34380678  0.56256760    -0.04900
C337        C  0.13980667  0.27437592  0.56449293    -0.05700
C338        C  0.20746998  0.33449866  0.56594295    -0.05600
C339        C  0.13352448  0.37032060  0.57396919    -0.31000
N340        N  0.12521547  0.38539267  0.53959253     0.15500
C341        C  0.13575864  0.36980912  0.50635308    -0.31000
H342        H  0.13634170  0.38246139  0.97782270     0.17500
C343        C  0.11856594  0.23376278  0.57824624    -0.30000
N344        N  0.10726123  0.20888901  0.54507899     0.14300
C345        C  0.12155439  0.23338371  0.51067988    -0.29900
C346        C  0.24382937  0.36747343  0.57866541    -0.30200
N347        N  0.26878771  0.38585023  0.54542668     0.14800
H348        H  0.25032954  0.37919969  0.60964775     0.17400
C349        C  0.24767309  0.36739499  0.51151434    -0.30200
H350        H  0.25928824  0.38192212  0.98041798     0.17400
H351        H  0.12151535  0.22740998  0.97833433     0.17400
H352        H  0.12951048  0.37853407  0.60505103     0.17500
H353        H  0.11283049  0.22300325  0.60999897     0.17400
C354        C  0.15155320  0.31342509  0.75289984     0.31300
C355        C  0.15965568  0.31977442  0.83306217     0.31300
C356        C  0.12580045  0.33079806  0.77403907    -0.04900
C357        C  0.13943465  0.27288446  0.77561814    -0.05700
C358        C  0.19530227  0.34325573  0.76642277    -0.05600
C359        C  0.13006799  0.33384029  0.81632809    -0.04900
C360        C  0.14346335  0.27584648  0.81711946    -0.05700
C361        C  0.19972103  0.34670663  0.80810331    -0.05600
C362        C  0.12048728  0.36378069  0.82941609    -0.31000
N363        N  0.10998260  0.37870263  0.79668593     0.15500
C364        C  0.11516416  0.36050582  0.76248486    -0.31000
H365        H  0.11347250  0.36974334  0.73131679     0.17500
C366        C  0.12034159  0.23614841  0.83366986    -0.30000
N367        N  0.10335938  0.20933696  0.80238548     0.14300
C368        C  0.11413421  0.23188797  0.76677162    -0.29900
C369        C  0.24068369  0.37412816  0.81482404    -0.30200
N370        N  0.26112880  0.38636115  0.77773424     0.14800
H371        H  0.25455578  0.38368160  0.84443010     0.17400
C372        C  0.23341282  0.36799488  0.74797169    -0.30200
H373        H  0.24074754  0.37191949  0.71526553     0.17400
H374        H  0.10190593  0.22015364  0.73690054     0.17400
H375        H  0.12408130  0.37629217  0.86007374     0.17500
H376        H  0.11431440  0.22777438  0.86604195     0.17400
C377        C  0.13018409  0.31024630  0.94247942    -0.12100
C378        C  0.16737905  0.31842396  0.95929896     0.10100
C379        C  0.19885902  0.31838881  0.93529297    -0.12100
C380        C  0.19612775  0.31847304  0.89362713    -0.12100
C381        C  0.16253350  0.31958253  0.87689568     0.10100
C382        C  0.12769044  0.31072807  0.90105951    -0.12100
H383        H  0.10354215  0.30446656  0.96146789     0.14100
H384        H  0.22484717  0.31752020  0.94825286     0.14100
H385        H  0.21986085  0.31733326  0.87473075     0.14100
H386        H  0.09871047  0.30422876  0.88819794     0.14100
C387        C  0.18304746  0.30164371  0.64928790    -0.12100
C388        C  0.15771696  0.31225630  0.62739429     0.10100
C389        C  0.12138482  0.30815952  0.64547316    -0.12100
C390        C  0.11711159  0.30596546  0.68729078    -0.12100
C391        C  0.14844745  0.30595896  0.70950642     0.10100
C392        C  0.17755980  0.29727152  0.69078679    -0.12100
H393        H  0.20734992  0.29773520  0.63465406     0.14100
H394        H  0.09711043  0.30775562  0.62759556     0.14100
H395        H  0.09025242  0.30502163  0.70178493     0.14100
H396        H  0.19843844  0.29125013  0.70848815     0.14100
C397        C  0.06988918  0.14019105  0.77441760    -0.15200
C398        C  0.07646211  0.16519351  0.80665846    -0.30300
H399        H  0.08546880  0.15327203  0.74509883     0.13900
H400        H  0.06335840  0.15191348  0.83682288     0.14400
C401        C  0.33137089  0.43261865  0.79902593    -0.15200
C402        C  0.30474433  0.41160286  0.76956331    -0.30300
H403        H  0.32177213  0.92917017  0.83755397     0.13900
H404        H  0.31634003  0.41381152  0.73810606     0.14400
C405        C  0.10051496  0.43410250  0.76757907    -0.15200
C406        C  0.09613992  0.40888985  0.79927800    -0.30300
H407        H  0.11689577  0.43383694  0.73960887     0.13900
H408        H  0.08216399  0.41144042  0.82812675     0.14400
C409        C  0.08730011  0.16437135  0.54764868    -0.15200
C410        C  0.06542154  0.14021608  0.51682941    -0.30300
H411        H  0.08876546  0.15003585  0.57638231     0.13900
H412        H  0.06128446  0.15402965  0.48905727     0.14400
C413        C  0.33712013  0.42843753  0.51559412    -0.15200
C414        C  0.30936934  0.42102331  0.54625551    -0.30300
H415        H  0.32663684  0.91307268  0.59036253     0.13900
H416        H  0.31856235  0.43977113  0.57374965     0.14400
C417        C  0.10966601  0.41434756  0.54092482    -0.15200
C418        C  0.09343620  0.42370258  0.50866741    -0.30300
H419        H  0.11012010  0.42842475  0.57042566     0.13900
H420        H  0.09090723  0.40909455  0.47914040     0.14400
C421        C  0.39207744  0.09594863  0.77326391    -0.15200
C422        C  0.42195684  0.09524191  0.74995118    -0.30300
H423        H  0.37973332  0.07498612  0.79979140     0.13900
H424        H  0.43565195  0.11611946  0.72362235     0.14400
C425        C  0.43088974  0.35584531  0.78476950    -0.15200
C426        C  0.45103443  0.38351748  0.75441572    -0.30300
H427        H  0.42764817  0.36682515  0.81493700     0.13900
H428        H  0.45708321  0.37322323  0.72509691     0.14400
C429        C  0.20557078  0.12440831  0.76528848    -0.15200
C430        C  0.17712372  0.11299863  0.79575841    -0.30300
H431        H  0.19666115  0.11057854  0.73515918     0.13900
H432        H  0.18474066  0.12765321  0.82556692     0.14400
C433        C  0.42561590  0.12769176  0.03743736    -0.15200
C434        C  0.44474606  0.11641476  0.00871463    -0.30300
H435        H  0.41727462  0.11168054  0.06717136     0.13900
H436        H  0.40285832  0.10130871  0.49186969     0.14400
C437        C  0.44015348  0.36504278  0.51282618    -0.15200
C438        C  0.43992279  0.39207389  0.54010827    -0.30300
H439        H  0.46473209  0.37904665  0.98616604     0.13900
H440        H  0.41844740  0.38094375  0.56630102     0.14400
C441        C  0.18060316  0.09914633  0.54161173    -0.15200
C442        C  0.20538797  0.12071305  0.50983060    -0.30300
H443        H  0.19304459  0.10061714  0.57175662     0.13900
H444        H  0.20420621  0.11486078  0.97830688     0.14400
C445        C  0.39676648  0.21229539  0.91243910    -0.12100
C446        C  0.36918267  0.21859156  0.93647461     0.10100
C447        C  0.33929584  0.22596880  0.91906063    -0.12100
C448        C  0.33013826  0.21645121  0.87913280    -0.12100
C449        C  0.35324196  0.20290219  0.85615111     0.10100
C450        C  0.38881576  0.20455502  0.87188603    -0.12100
H451        H  0.42413969  0.21367470  0.92435613     0.14100
H452        H  0.32061439  0.23539899  0.93742576     0.14100
H453        H  0.30634737  0.22135687  0.86619114     0.14100
H454        H  0.41125619  0.20150178  0.85256180     0.14100
C455        C  0.34275363  0.24577428  0.62962916    -0.12100
C456        C  0.33950995  0.21279603  0.60641730     0.10100
C457        C  0.32952478  0.17477180  0.62495198    -0.12100
C458        C  0.33639587  0.17405541  0.66561245    -0.12100
C459        C  0.35103928  0.21088427  0.68754522     0.10100
C460        C  0.34805509  0.24450675  0.67091897    -0.12100
H461        H  0.34197639  0.27224866  0.61630111     0.14100
H462        H  0.32099537  0.14701049  0.60721063     0.14100
H463        H  0.32920105  0.14460170  0.67957160     0.14100
H464        H  0.34891275  0.26908149  0.68964361     0.14100
C465        C  0.34605474  0.71820805  0.06447502     0.31300
C466        C  0.35776939  0.71716882  0.48319133     0.31300
C467        C  0.30621874  0.69116138  0.04243676    -0.04900
C468        C  0.36418278  0.76109518  0.04301735    -0.05700
C469        C  0.37576016  0.70221383  0.04942990    -0.05600
C470        C  0.31481507  0.68674730  0.49949108    -0.04900
C471        C  0.36662613  0.75860578  0.50113404    -0.05700
C472        C  0.38536145  0.70436798  0.50656225    -0.05600
C473        C  0.27735539  0.66045852  0.48324574    -0.31000
N474        N  0.24898824  0.64549609  0.51436601     0.15500
C475        C  0.26537627  0.66479599  0.05285805    -0.31000
H476        H  0.25165191  0.65806205  0.08357507     0.17500
C477        C  0.38880772  0.79865757  0.48652120    -0.30000
N478        N  0.40278758  0.82541294  0.01759269     0.14300
C479        C  0.38841049  0.80251426  0.05297429    -0.29900
C480        C  0.39846095  0.67563630  0.49842931    -0.30200
N481        N  0.40600443  0.66215586  0.53427733     0.14800
H482        H  0.39783158  0.66181026  0.46896185     0.17400
C483        C  0.39092939  0.67771595  0.06598334    -0.30200
H484        H  0.39127412  0.67047016  0.09818108     0.17400
H485        H  0.39674916  0.81508056  0.08339233     0.17400
H486        H  0.27073421  0.65357587  0.45108272     0.17500
H487        H  0.39896169  0.80844763  0.45494036     0.17400
C488        C  0.35048534  0.70708737  0.31343074     0.31300
C489        C  0.35712123  0.71422921  0.23249391     0.31300
C490        C  0.30989370  0.69500205  0.29303087    -0.04900
C491        C  0.37947881  0.75063368  0.29671986    -0.05700
C492        C  0.36539088  0.67967059  0.29262219    -0.05600
C493        C  0.31357180  0.69902066  0.25087506    -0.04900
C494        C  0.38381493  0.75486839  0.25483176    -0.05700
C495        C  0.37050307  0.68405834  0.25063341    -0.05600
C496        C  0.27506016  0.67463414  0.23566170    -0.31000
N497        N  0.24811828  0.65607749  0.26743796     0.15500
C498        C  0.26923286  0.66707122  0.30275619    -0.32800
H499        H  0.25696129  0.65280054  0.33264414     0.17500
C500        C  0.40807192  0.79691397  0.24618090    -0.30000
N501        N  0.41657076  0.81754883  0.28239252     0.14300
C502        C  0.39926337  0.78942111  0.31339122    -0.29900
C503        C  0.38649241  0.65867919  0.23795629    -0.30200
N504        N  0.38907677  0.63828560  0.27174376     0.14800
H505        H  0.39509483  0.65501224  0.20684010     0.17400
C506        C  0.37566106  0.65054553  0.30503267    -0.30200
H507        H  0.37393994  0.63918086  0.33617030     0.17400
H508        H  0.39922306  0.79688669  0.34559769     0.17400
H509        H  0.26767216  0.66784085  0.20362421     0.17500
H510        H  0.41657343  0.81161289  0.21603219     0.17400
C511        C  0.13142446  0.57577508  0.03449251     0.77700
Tb512      Tb  0.46514987  0.52170003  0.02412310     1.80700
O513        O  0.10142688  0.56746410  0.05892579    -0.50300
O514        O  0.09257831  0.97966994  0.05034553    -0.57800
C515        C  0.05010424  0.59734259  0.01718473     0.93500
O516        O  0.43014373  0.55851035  0.54453373    -0.57300
Tb517      Tb  0.05152390  0.51455929  0.01856334     1.78100
O518        O  0.39906908  0.98362297  0.02307618    -0.57800
O519        O  0.50436904  0.95938641  0.06252372    -0.76600
O520        O  0.05407052  0.57445238  0.99089106    -0.75900
O521        O  0.03847279  0.51515280  0.44763822    -0.61200
C522        C  0.47673431  0.93844827  0.03780472     0.93100
O523        O  0.47874311  0.52090589  0.10038649    -0.73100
C524        C  0.38270697  0.46198597  0.01667371     0.76600
C525        C  0.08737375  0.95896827  0.01826691     0.77500
O526        O  0.11679668  0.56915027  0.50226399    -0.58400
O527        O  0.06849031  0.96708946  0.99114667    -0.50300
O528        O  0.47960400  0.51697918  0.44680917    -0.76400
O529        O  0.03545723  0.51381103  0.09723102    -0.60400
C530        C  0.00832634  0.51677257  0.12205000     0.91300
C531        C  0.00894316  0.51373436  0.42476152     0.92600
C532        C  0.44399184  0.58436904  0.51496933     0.76900
O533        O  0.39535558  0.48896770  0.04434997    -0.49700
O534        O  0.42276662  0.04309575  0.50337316    -0.50800
O535        O  0.47025834  0.95796771  0.00973871    -0.63700
O536        O  0.02399769  0.58003528  0.04607470    -0.64800
C537        C  0.13503531  0.58037760  0.28424130     0.77700
Tb538      Tb  0.46312579  0.51294488  0.27530026     1.80700
O539        O  0.10519416  0.57058145  0.30922952    -0.50300
O540        O  0.07001160  0.95842016  0.29791218    -0.57800
C541        C  0.04572685  0.59442699  0.27018070     0.93500
O542        O  0.43160756  0.55273093  0.28926948    -0.57300
Tb543      Tb  0.05569655  0.51714746  0.26910350     1.78100
O544        O  0.40607619  0.95476703  0.26985859    -0.57800
O545        O  0.51130986  0.95848814  0.24753997    -0.76600
O546        O  0.05206325  0.57392418  0.24303460    -0.75900
O547        O  0.04184837  0.51915752  0.19300781    -0.61200
C548        C  0.48026453  0.93399357  0.26855557     0.93100
O549        O  0.47768360  0.51652484  0.35093532    -0.73100
C550        C  0.37826540  0.45952914  0.28883010     0.76600
C551        C  0.09692750  0.96309531  0.27081708     0.77500
O552        O  0.12527575  0.55937235  0.25183520    -0.58400
O553        O  0.10521662  0.99260778  0.24617148    -0.50300
O554        O  0.47813032  0.51310035  0.19641441    -0.76400
O555        O  0.03791655  0.51295186  0.34821850    -0.60400
C556        C  0.00938929  0.51388590  0.37255403     0.91300
C557        C  0.00995857  0.51596957  0.17395282     0.92600
C558        C  0.43823745  0.57073673  0.25473168     0.76900
O559        O  0.40124900  0.48510694  0.31454731    -0.49700
O560        O  0.46854151  0.06206668  0.24062702    -0.50800
O561        O  0.46748554  0.94851787  0.29692160    -0.63700
O562        O  0.02022446  0.57451663  0.29890489    -0.64800
C563        C  0.17064901  0.81881668  0.00217706     0.31300
C564        C  0.17121317  0.81893283  0.08273468     0.31300
C565        C  0.15535418  0.84674096  0.02187677    -0.04900
C566        C  0.14494557  0.77647215  0.02245799    -0.05700
C567        C  0.21358896  0.83532211  0.01956420    -0.05600
C568        C  0.15579100  0.84698479  0.06401196    -0.04900
C569        C  0.14496147  0.77647425  0.06408775    -0.05700
C570        C  0.21411601  0.83529079  0.06216172    -0.05600
C571        C  0.14361432  0.87507506  0.07692048    -0.31000
N572        N  0.13472112  0.89086706  0.04333256     0.15500
C573        C  0.14249237  0.87425571  0.00927920    -0.31000
H574        H  0.12593751  0.87374161  0.47706871     0.17500
C575        C  0.12051134  0.73603632  0.07771200    -0.30000
N576        N  0.10614624  0.71152383  0.04439144     0.14300
C577        C  0.12091949  0.73613697  0.01014311    -0.29900
C578        C  0.25230154  0.86705363  0.07287422    -0.30200
N579        N  0.27486712  0.88514204  0.03807687     0.14800
H580        H  0.26130755  0.87875727  0.10355419     0.17400
C581        C  0.25083758  0.86745349  0.00573471    -0.30200
H582        H  0.24870990  0.88007559  0.47356659     0.17400
H583        H  0.12268395  0.72176744  0.48004781     0.17400
H584        H  0.14160191  0.88375718  0.10834347     0.17500
H585        H  0.11406191  0.72515595  0.10941152     0.17400
C586        C  0.16949700  0.81307058  0.25225924     0.31300
C587        C  0.17195387  0.81498878  0.33289213     0.31300
C588        C  0.15843667  0.84467991  0.27167859    -0.04900
C589        C  0.14113297  0.77216522  0.27370510    -0.05700
C590        C  0.21214782  0.82576437  0.26923952    -0.05600
C591        C  0.16004966  0.84558377  0.31376136    -0.04900
C592        C  0.14245611  0.77292101  0.31524910    -0.05700
C593        C  0.21377803  0.82713055  0.31184576    -0.05600
C594        C  0.14722332  0.87286113  0.32756958    -0.31000
N595        N  0.13715403  0.88829887  0.29473009     0.15500
C596        C  0.14443897  0.87180071  0.26009943    -0.31000
H597        H  0.13810141  0.87751570  0.22918282     0.17500
C598        C  0.11634971  0.73319099  0.32991145    -0.30000
N599        N  0.09948386  0.70841614  0.29724910     0.14300
C600        C  0.11436926  0.73223974  0.26247031    -0.29900
C601        C  0.25357856  0.85680797  0.32087477    -0.30200
N602        N  0.27613829  0.87094011  0.28527639     0.14800
H603        H  0.26442163  0.86901668  0.35099850     0.17400
C604        C  0.25078403  0.85351265  0.25386242    -0.30200
H605        H  0.25914888  0.86327118  0.22200405     0.17400
H606        H  0.10684138  0.72156238  0.23128997     0.17400
H607        H  0.14390278  0.87991893  0.35928673     0.17500
H608        H  0.11102606  0.72280197  0.36177262     0.17400
C609        C  0.12727050  0.80673018  0.43598899    -0.12100
C610        C  0.15987194  0.81068892  0.45887076     0.10100
C611        C  0.19148797  0.80507361  0.44131205    -0.12100
C612        C  0.19613175  0.80653322  0.39965565    -0.12100
C613        C  0.16796234  0.81178689  0.37671846     0.10100
C614        C  0.13119211  0.80681616  0.39449705    -0.12100
H615        H  0.09933953  0.80405174  0.44974228     0.14100
H616        H  0.21350958  0.80169775  0.45981258     0.14100
H617        H  0.22125092  0.80354268  0.38586060     0.14100
H618        H  0.10616427  0.80420756  0.37620205     0.14100
C619        C  0.19533603  0.80300267  0.14511408    -0.12100
C620        C  0.16892733  0.81447699  0.12647677     0.10100
C621        C  0.13442121  0.81119117  0.14781365    -0.12100
C622        C  0.13300934  0.80795587  0.18960298    -0.12100
C623        C  0.16607286  0.80797774  0.20860969     0.10100
C624        C  0.19332044  0.79888432  0.18666535    -0.12100
H625        H  0.21770636  0.79790535  0.12787876     0.14100
H626        H  0.10937406  0.81198198  0.13246576     0.14100
H627        H  0.10750324  0.80730537  0.20692304     0.14100
H628        H  0.21425174  0.79077212  0.20139571     0.14100
C629        C  0.06878962  0.63991812  0.26777291    -0.15200
C630        C  0.07274823  0.66423541  0.29989170    -0.30300
H631        H  0.08571320  0.65350121  0.23915092     0.13900
H632        H  0.05799495  0.65022779  0.32935407     0.14400
C633        C  0.34146021  0.92694645  0.30818738    -0.15200
C634        C  0.31900243  0.90030676  0.27928029    -0.30300
H635        H  0.32271862  0.43182259  0.32862593     0.13900
H636        H  0.33333154  0.90140716  0.24939613     0.14400
C637        C  0.11703091  0.93714699  0.26712386    -0.15200
C638        C  0.11717243  0.91331845  0.29825698    -0.30300
H639        H  0.13362266  0.93916366  0.23853056     0.13900
H640        H  0.10284151  0.91373360  0.32768097     0.14400
C641        C  0.07956452  0.66730194  0.04632349    -0.15200
C642        C  0.07610752  0.64276202  0.01441873    -0.30300
H643        H  0.06332801  0.65337633  0.07525729     0.13900
H644        H  0.09413710  0.65593733  0.98623141     0.14400
C645        C  0.34421997  0.92785058  0.06232490    -0.15200
C646        C  0.31565255  0.91981815  0.03417815    -0.30300
H647        H  0.33091124  0.41017312  0.98686452     0.13900
H648        H  0.32463132  0.93735035  0.00528517     0.14400
C649        C  0.12045269  0.92078955  0.04517879    -0.15200
C650        C  0.10224012  0.92861332  0.01362542    -0.30300
H651        H  0.12323815  0.93646098  0.07418936     0.13900
H652        H  0.09765206  0.91239609  0.98477961     0.14400
C653        C  0.40249371  0.60801159  0.27509324    -0.15200
C654        C  0.42384730  0.60062533  0.24559331    -0.30300
H655        H  0.39633189  0.59160254  0.30450503     0.13900
H656        H  0.43131757  0.61674244  0.21603107     0.14400
C657        C  0.43503243  0.86144225  0.28856457    -0.15200
C658        C  0.46058924  0.88926431  0.26063196    -0.30300
H659        H  0.42914082  0.87212468  0.31783521     0.13900
H660        H  0.46883483  0.87907076  0.23237570     0.14400
C661        C  0.20631110  0.62483373  0.26201584    -0.15200
C662        C  0.17728162  0.61275890  0.29205874    -0.30300
H663        H  0.19785430  0.61158676  0.23161025     0.13900
H664        H  0.18441471  0.62689615  0.32212571     0.14400
C665        C  0.41616216  0.62935013  0.53963767    -0.15200
C666        C  0.43425463  0.61841146  0.50945069    -0.30300
H667        H  0.40972714  0.61368232  0.56947102     0.13900
H668        H  0.43793766  0.63287377  0.98035136     0.14400
C669        C  0.42754650  0.86964385  0.01312991    -0.15200
C670        C  0.45209837  0.89314382  0.04278616    -0.30300
H671        H  0.42209893  0.88269234  0.48610702     0.13900
H672        H  0.45483286  0.87893050  0.07095751     0.14400
C673        C  0.17397953  0.60753018  0.04210465    -0.15200
C674        C  0.20346863  0.61630674  0.01308295    -0.30300
H675        H  0.18086247  0.62387700  0.07102284     0.13900
H676        H  0.19433433  0.61649883  0.47746048     0.14400
C677        C  0.39135437  0.71771134  0.41677442    -0.12100
C678        C  0.36054830  0.72036693  0.43903052     0.10100
C679        C  0.33072683  0.72634888  0.41957035    -0.12100
C680        C  0.32524397  0.71867910  0.37879882    -0.12100
C681        C  0.35132947  0.70764573  0.35749440     0.10100
C682        C  0.38681313  0.71153079  0.37561574    -0.12100
H683        H  0.41864382  0.72063068  0.43061628     0.14100
H684        H  0.30978017  0.73374387  0.43661948     0.14100
H685        H  0.30162426  0.72261176  0.36405990     0.14100
H686        H  0.41153959  0.71105505  0.35786364     0.14100
C687        C  0.34244705  0.74859650  0.13113422    -0.12100
C688        C  0.33813739  0.71502359  0.10833291     0.10100
C689        C  0.32936601  0.67775504  0.12757607    -0.12100
C690        C  0.34002456  0.67889882  0.16737830    -0.12100
C691        C  0.35519229  0.71636312  0.18847599     0.10100
C692        C  0.35112707  0.74929891  0.17171127    -0.12100
H693        H  0.33949669  0.77390367  0.11798191     0.14100
H694        H  0.31919921  0.64926916  0.11064409     0.14100
H695        H  0.33417983  0.65006027  0.18189122     0.14100
H696        H  0.35275966  0.77446728  0.18999609     0.14100
C697        C  0.34787679  0.71649583  0.56391692     0.31300
C698        C  0.35439232  0.71676105  0.98370789     0.31300
C699        C  0.30939209  0.68711735  0.54100040    -0.04900
C700        C  0.36261828  0.75917999  0.54318592    -0.05700
C701        C  0.38091280  0.70487903  0.54910059    -0.05600
C702        C  0.31082297  0.68959876  0.00092966    -0.04900
C703        C  0.36732391  0.75953070  0.00096615    -0.05700
C704        C  0.37940786  0.70079240  0.00718929    -0.05600
C705        C  0.27329805  0.66168878  0.98599885    -0.31000
N706        N  0.24559349  0.64708918  0.01779190     0.15500
C707        C  0.26823189  0.66158234  0.55015765    -0.31000
H708        H  0.25341999  0.65667445  0.58026216     0.17500
C709        C  0.39034705  0.79927816  0.98559842    -0.30000
N710        N  0.39987686  0.82410583  0.51891990     0.14300
C711        C  0.38590580  0.80052224  0.55386150    -0.29900
C712        C  0.39340255  0.67276783  0.99903901    -0.30200
N713        N  0.40177512  0.66009448  0.03501367     0.14800
H714        H  0.39356997  0.65939488  0.96951664     0.17400
C715        C  0.39510204  0.67947931  0.56533786    -0.30200
H716        H  0.39424174  0.67102791  0.59736290     0.17400
H717        H  0.39402850  0.81260475  0.58447988     0.17400
H718        H  0.26653407  0.65214122  0.95437513     0.17500
H719        H  0.39980416  0.80831171  0.95375075     0.17400
C720        C  0.34754407  0.70284591  0.81416718     0.31300
C721        C  0.35450732  0.71059736  0.73307446     0.31300
C722        C  0.30669123  0.68753504  0.79312034    -0.04900
C723        C  0.37402561  0.74710671  0.79776116    -0.05700
C724        C  0.36570643  0.67824710  0.79331453    -0.05600
C725        C  0.31065673  0.69217435  0.75120710    -0.04900
C726        C  0.37852002  0.75168635  0.75585270    -0.05700
C727        C  0.37069248  0.68271463  0.75125941    -0.05600
C728        C  0.27201285  0.67171066  0.73559391    -0.31000
N729        N  0.24452944  0.65419856  0.76721847     0.15500
C730        C  0.26536670  0.66301597  0.80281473    -0.32800
H731        H  0.25201214  0.65005170  0.83283395     0.17500
C732        C  0.40151631  0.79394999  0.74757777    -0.30000
N733        N  0.40925383  0.81434589  0.78394214     0.14300
C734        C  0.39266863  0.78584644  0.81474210    -0.29900
C735        C  0.38723389  0.65779460  0.73853883    -0.30200
N736        N  0.39043124  0.63779725  0.77237012     0.14800
H737        H  0.39533126  0.65379361  0.70733391     0.17400
C738        C  0.37667822  0.64966854  0.80563869    -0.30200
H739        H  0.37446333  0.63779121  0.83664475     0.17400
H740        H  0.39291499  0.79294138  0.84708442     0.17400
H741        H  0.26453232  0.66728107  0.70337271     0.17500
H742        H  0.41025466  0.80880352  0.71751444     0.17400
C743        C  0.13656059  0.56902833  0.53326236     0.77700
Tb744      Tb  0.46290106  0.51984842  0.52527986     1.80700
O745        O  0.11506057  0.54170916  0.55968424    -0.50300
O746        O  0.08658919  0.97744097  0.54885396    -0.57800
C747        C  0.04857135  0.59579539  0.52019838     0.93500
O748        O  0.43353383  0.56087166  0.04680082    -0.57300
Tb749      Tb  0.05285166  0.51376359  0.52591558     1.78100
O750        O  0.39222976  0.97502831  0.51570575    -0.57800
O751        O  0.49626534  0.95917531  0.56537377    -0.76600
O752        O  0.05668936  0.57600853  0.54638815    -0.75900
O753        O  0.03723852  0.51487645  0.94304950    -0.61200
C754        C  0.46967264  0.93738468  0.54011321     0.93100
O755        O  0.47563664  0.51675685  0.60148551    -0.73100
C756        C  0.38015139  0.46109546  0.51803765     0.76600
C757        C  0.07689211  0.95436032  0.51801145     0.77500
O758        O  0.12153865  0.55410196  0.00255049    -0.58400
O759        O  0.05530441  0.96113882  0.49307506    -0.50300
O760        O  0.48035276  0.51635254  0.94583956    -0.76400
O761        O  0.03522736  0.51240589  0.60134540    -0.60400
C762        C  0.00658799  0.51565852  0.62208895     0.91300
C763        C  0.00725130  0.51571628  0.92412635     0.92600
C764        C  0.44267605  0.58421841  0.01540313     0.76900
O765        O  0.39290345  0.48908718  0.54471155    -0.49700
O766        O  0.47786443  0.07500317  0.99563097    -0.50800
O767        O  0.46306057  0.95575871  0.51105633    -0.63700
O768        O  0.02020535  0.57574622  0.49592105    -0.64800
C769        C  0.13105723  0.58090155  0.78360421     0.77700
Tb770      Tb  0.46099433  0.50941521  0.77529782     1.80700
O771        O  0.10149239  0.57048426  0.80906621    -0.50300
O772        O  0.06177781  0.95966459  0.79740663    -0.57800
C773        C  0.04362236  0.59484056  0.76956359     0.93500
O774        O  0.43468203  0.55366766  0.79064388    -0.57300
Tb775      Tb  0.05183509  0.51756609  0.76873572     1.78100
O776        O  0.40060036  0.95368284  0.77099278    -0.57800
O777        O  0.50353384  0.95478680  0.74831851    -0.76600
O778        O  0.04862573  0.57422951  0.74164890    -0.75900
O779        O  0.03810186  0.51892370  0.69319868    -0.61200
C780        C  0.47266102  0.93105922  0.76993538     0.93100
O781        O  0.47724414  0.51400278  0.85046284    -0.73100
C782        C  0.37592678  0.45830349  0.79025643     0.76600
C783        C  0.08977690  0.96421450  0.77174525     0.77500
O784        O  0.12108704  0.56051757  0.75082078    -0.58400
O785        O  0.10080480  0.99482178  0.74767287    -0.50300
O786        O  0.47562043  0.50888399  0.69691031    -0.76400
O787        O  0.03395178  0.51415945  0.84748547    -0.60400
C788        C  0.00574269  0.51534116  0.87210044     0.91300
C789        C  0.00654993  0.51576499  0.67372778     0.92600
C790        C  0.43691017  0.56791270  0.75483377     0.76900
O791        O  0.39979647  0.48354277  0.81570219    -0.49700
O792        O  0.46132102  0.05912040  0.74026526    -0.50800
O793        O  0.46041992  0.94634362  0.79804998    -0.63700
O794        O  0.01920783  0.57475273  0.79890246    -0.64800
C795        C  0.15905416  0.81523245  0.50241741     0.31300
C796        C  0.15875817  0.81662802  0.58304064     0.31300
C797        C  0.13086869  0.83086560  0.52111763    -0.04900
C798        C  0.14506525  0.77346414  0.52318272    -0.05700
C799        C  0.20075333  0.84433734  0.52049317    -0.05600
C800        C  0.13101269  0.83174250  0.56382146    -0.04900
C801        C  0.14480666  0.77403880  0.56481121    -0.05700
C802        C  0.20125113  0.84502992  0.56259735    -0.05600
C803        C  0.12360382  0.86353630  0.57540960    -0.31000
N804        N  0.11652323  0.88016513  0.54172665     0.15500
C805        C  0.12289167  0.86207964  0.50827645    -0.31000
H806        H  0.14001386  0.88230947  0.97785820     0.17500
C807        C  0.12767482  0.73352257  0.57890948    -0.30000
N808        N  0.11717836  0.70851628  0.54581040     0.14300
C809        C  0.12793314  0.73277195  0.51132093    -0.29900
C810        C  0.24111645  0.87326449  0.57318492    -0.30200
N811        N  0.26399662  0.88949275  0.53776027     0.14800
H812        H  0.25221466  0.88195656  0.60399597     0.17400
C813        C  0.23922735  0.87240371  0.50560407    -0.30200
H814        H  0.25874742  0.87933730  0.97441048     0.17400
H815        H  0.11450283  0.72578541  0.97873173     0.17400
H816        H  0.12662147  0.87613361  0.60598089     0.17500
H817        H  0.12135244  0.72288206  0.61068990     0.17400
C818        C  0.16072364  0.81463233  0.75250730     0.31300
C819        C  0.16456650  0.81616046  0.83305516     0.31300
C820        C  0.14639906  0.84319725  0.77304799    -0.04900
C821        C  0.13533052  0.77285473  0.77392886    -0.05700
C822        C  0.20427974  0.83110593  0.76843003    -0.05600
C823        C  0.14824058  0.84375398  0.81523487    -0.04900
C824        C  0.13729138  0.77349547  0.81551775    -0.05700
C825        C  0.20646322  0.83227753  0.81056338    -0.05600
C826        C  0.13374257  0.86959140  0.82947206    -0.31000
N827        N  0.12319163  0.88474677  0.79669430     0.15500
C828        C  0.13122900  0.86922658  0.76186057    -0.31000
H829        H  0.12550343  0.87559708  0.73093122     0.17500
C830        C  0.11288447  0.73342968  0.83013085    -0.30000
N831        N  0.09645934  0.70854174  0.79743381     0.14300
C832        C  0.10985741  0.73260060  0.76269794    -0.29900
C833        C  0.24637583  0.86136799  0.81963107    -0.30200
N834        N  0.26868747  0.87569216  0.78391971     0.14800
H835        H  0.25771284  0.87243696  0.84991432     0.17400
C836        C  0.24284751  0.85878550  0.75260677    -0.30200
H837        H  0.25111670  0.86812067  0.72064782     0.17400
H838        H  0.10176512  0.72194091  0.73159074     0.17400
H839        H  0.13091065  0.87692801  0.86120358     0.17500
H840        H  0.10803328  0.72302550  0.86197628     0.17400
C841        C  0.13198313  0.80978157  0.94085195    -0.12100
C842        C  0.16777948  0.81490077  0.95868161     0.10100
C843        C  0.19639654  0.80804950  0.93652878    -0.12100
C844        C  0.19444994  0.80667642  0.89502342    -0.12100
C845        C  0.16438149  0.81289266  0.87670821     0.10100
C846        C  0.13023375  0.80869712  0.89923830    -0.12100
H847        H  0.10620849  0.80771232  0.95889880     0.14100
H848        H  0.22029742  0.80430834  0.95092738     0.14100
H849        H  0.21673117  0.80164268  0.87761119     0.14100
H850        H  0.10313856  0.80581148  0.88477194     0.14100
C851        C  0.18606748  0.80551410  0.64507026    -0.12100
C852        C  0.15678121  0.81290375  0.62683733     0.10100
C853        C  0.12195961  0.80790066  0.64907583    -0.12100
C854        C  0.12225997  0.80661337  0.69083660    -0.12100
C855        C  0.15700532  0.80970693  0.70899548     0.10100
C856        C  0.18523733  0.80234221  0.68661112    -0.12100
H857        H  0.20948304  0.80260228  0.62723766     0.14100
H858        H  0.09512337  0.80564126  0.63468691     0.14100
H859        H  0.09639443  0.80452358  0.70871812     0.14100
H860        H  0.20773676  0.79628347  0.70093680     0.14100
C861        C  0.06679638  0.64030044  0.76750938    -0.15200
C862        C  0.07069725  0.66423312  0.79994831    -0.30300
H863        H  0.08333726  0.65420810  0.73879361     0.13900
H864        H  0.05626679  0.64990710  0.82942016     0.14400
C865        C  0.33542168  0.92831715  0.80796150    -0.15200
C866        C  0.31202756  0.90364491  0.77816647    -0.30300
H867        H  0.32041277  0.43224348  0.83031659     0.13900
H868        H  0.32605163  0.90510171  0.74803350     0.14400
C869        C  0.10803725  0.93678098  0.76900822    -0.15200
C870        C  0.10438051  0.91075210  0.79967151    -0.30300
H871        H  0.12645021  0.93940138  0.74160917     0.13900
H872        H  0.08840351  0.91043581  0.82823763     0.14400
C873        C  0.09595804  0.66400275  0.54789381    -0.15200
C874        C  0.07157075  0.64126357  0.51767246    -0.30300
H875        H  0.09806298  0.64876682  0.57569992     0.13900
H876        H  0.06704085  0.65632208  0.49111762     0.14400
C877        C  0.33525424  0.92837017  0.56035862    -0.15200
C878        C  0.30666796  0.92012006  0.53208432    -0.30300
H879        H  0.32889844  0.40803931  0.48936069     0.13900
H880        H  0.31652777  0.93521586  0.50197592     0.14400
C881        C  0.10828506  0.91429476  0.54290884    -0.15200
C882        C  0.08897573  0.92212929  0.51266756    -0.30300
H883        H  0.11494830  0.93205106  0.57104672     0.13900
H884        H  0.08016052  0.90346233  0.48517451     0.14400
C885        C  0.40434616  0.60793991  0.77602944    -0.15200
C886        C  0.42262965  0.59787074  0.74556144    -0.30300
H887        H  0.40058027  0.59358211  0.80626548     0.13900
H888        H  0.42714952  0.61134648  0.71489306     0.14400
C889        C  0.42769855  0.85826199  0.79049070    -0.15200
C890        C  0.45223688  0.88624728  0.76212465    -0.30300
H891        H  0.42283119  0.86882715  0.82027365     0.13900
H892        H  0.45952433  0.87611162  0.73330556     0.14400
C893        C  0.20198940  0.62574347  0.76115654    -0.15200
C894        C  0.17335084  0.61282448  0.79157918    -0.30300
H895        H  0.19293718  0.61430476  0.73021990     0.13900
H896        H  0.18101948  0.62509077  0.82235042     0.14400
C897        C  0.41373123  0.62851112  0.04066683    -0.15200
C898        C  0.43120839  0.61719181  0.01011564    -0.30300
H899        H  0.40898007  0.61395107  0.07090873     0.13900
H900        H  0.44300328  0.63534461  0.48030193     0.14400
C901        C  0.42308527  0.86837352  0.51505033    -0.15200
C902        C  0.44678508  0.89209077  0.54499294    -0.30300
H903        H  0.42714138  0.88406320  0.98404390     0.13900
H904        H  0.45010032  0.87815600  0.57308521     0.14400
C905        C  0.18021275  0.59733944  0.53930860    -0.15200
C906        C  0.20586693  0.61951444  0.50837514    -0.30300
H907        H  0.19178403  0.59809598  0.56976731     0.13900
H908        H  0.19523253  0.60039054  0.98384780     0.14400
C909        C  0.38788641  0.71552308  0.91798088    -0.12100
C910        C  0.35696845  0.71863210  0.93952323     0.10100
C911        C  0.32728409  0.72406259  0.91924583    -0.12100
C912        C  0.32160452  0.71466426  0.87876364    -0.12100
C913        C  0.34775515  0.70308800  0.85832434     0.10100
C914        C  0.38340378  0.70800450  0.87702019    -0.12100
H915        H  0.41534528  0.71935013  0.93225941     0.14100
H916        H  0.30659424  0.73236086  0.93547286     0.14100
H917        H  0.29815599  0.71831053  0.86331783     0.14100
H918        H  0.40858745  0.70785986  0.85989037     0.14100
C919        C  0.34057756  0.74454865  0.63093125    -0.12100
C920        C  0.33905230  0.71222338  0.60781976     0.10100
C921        C  0.33104843  0.67500863  0.62681599    -0.12100
C922        C  0.33923178  0.67553755  0.66745361    -0.12100
C923        C  0.35255599  0.71257049  0.68895706     0.10100
C924        C  0.34754780  0.74479328  0.67193506    -0.12100
H925        H  0.33671254  0.76929745  0.61778569     0.14100
H926        H  0.32274567  0.64707376  0.60947933     0.14100
H927        H  0.33379584  0.64684783  0.68202213     0.14100
H928        H  0.34734771  0.76912949  0.69021436     0.14100
C929        C  0.85794564  0.21671504  0.06718394     0.31300
C930        C  0.85814800  0.21034736  0.48676079     0.31300
C931        C  0.81809769  0.18575970  0.04731570    -0.04900
C932        C  0.87042460  0.25817710  0.04518461    -0.05700
C933        C  0.89076184  0.20533282  0.05118004    -0.05600
C934        C  0.81471236  0.18385900  0.50426125    -0.04900
C935        C  0.87177741  0.25363684  0.50301439    -0.05700
C936        C  0.88302864  0.19467034  0.51062412    -0.05600
C937        C  0.77644990  0.15780589  0.48951054    -0.31000
N938        N  0.74900208  0.14534886  0.52143777     0.15500
C939        C  0.77772833  0.15933606  0.05943774    -0.31000
H940        H  0.76481263  0.15459431  0.09043314     0.17500
C941        C  0.88974386  0.29288954  0.48595307    -0.30000
N942        N  0.91311101  0.32131521  0.01897742     0.14300
C943        C  0.89776793  0.29907562  0.05443112    -0.29900
C944        C  0.89931397  0.16862057  0.50301303    -0.30200
N945        N  0.90891393  0.15773832  0.53939849     0.14800
H946        H  0.90196259  0.15671064  0.47338677     0.17400
C947        C  0.90966880  0.18448176  0.06783519    -0.30200
H948        H  0.91231749  0.17949302  0.10017104     0.17400
H949        H  0.90874155  0.31108447  0.08457473     0.17400
H950        H  0.76881789  0.14887354  0.45787445     0.17500
H951        H  0.89683345  0.30117832  0.45363350     0.17400
C952        C  0.85765279  0.20758110  0.31702179     0.31300
C953        C  0.86370502  0.21268217  0.23623116     0.31300
C954        C  0.81645468  0.19193605  0.29642145    -0.04900
C955        C  0.88427828  0.25121782  0.29958725    -0.05700
C956        C  0.87526638  0.18193270  0.29730740    -0.05600
C957        C  0.81986475  0.19496455  0.25435822    -0.04900
C958        C  0.88821658  0.25432242  0.25771140    -0.05700
C959        C  0.88004180  0.18526280  0.25529638    -0.05600
C960        C  0.78142287  0.16988120  0.23931146    -0.31000
N961        N  0.75464533  0.15187432  0.27140434     0.15500
C962        C  0.77591744  0.16401369  0.30662486    -0.32800
H963        H  0.76370381  0.15079743  0.33687915     0.17500
C964        C  0.91112890  0.29613078  0.24785516    -0.30000
N965        N  0.91946504  0.31789439  0.28336142     0.14300
C966        C  0.90331027  0.29054775  0.31521229    -0.29900
C967        C  0.89798861  0.16124495  0.24369564    -0.30200
N968        N  0.90207269  0.14267265  0.27819005     0.14800
H969        H  0.90665241  0.15701664  0.21280787     0.17400
C970        C  0.88768779  0.15476049  0.31082306    -0.30200
H971        H  0.88623599  0.14414401  0.34222382     0.17400
H972        H  0.90374296  0.29879051  0.34723120     0.17400
H973        H  0.77399168  0.16268443  0.20733372     0.17500
H974        H  0.91915729  0.30969677  0.21722604     0.17400
C975        C  0.64203956  0.07599159  0.04440690     0.77700
Tb976      Tb  0.97010968  0.01714642  0.02713463     1.80700
O977        O  0.61321622  0.07045105  0.06911897    -0.50300
O978        O  0.56064900  0.46169843  0.04557854    -0.57800
C979        C  0.55353373  0.09648998  0.04022325     0.93500
O980        O  0.95791910  0.07075219  0.54986583    -0.57300
Tb981      Tb  0.55976188  0.01736535  0.03165331     1.78100
O982        O  0.90669079  0.46435545  0.99892483    -0.57800
O983        O  0.99216719  0.45247406  0.00608781    -0.76600
O984        O  0.56231775  0.07959678  0.01085146    -0.75900
O985        O  0.54072326  0.01849908  0.45814635    -0.61200
C986        C  0.96597502  0.43713975  0.03516482     0.93100
O987        O  0.98698507  0.01891811  0.10494396    -0.73100
C988        C  0.88858962  0.95763295  0.04378157     0.76600
C989        C  0.58288059  0.46035868  0.01637277     0.77500
O990        O  0.61709436  0.07163031  0.51273872    -0.58400
O991        O  0.58951677  0.48621604  0.98789260    -0.50300
O992        O  0.97897619  0.00853128  0.45061911    -0.76400
O993        O  0.54381730  0.01592327  0.10946370    -0.60400
C994        C  0.51415169  0.01559527  0.13255251     0.91300
C995        C  0.51065797  0.01498036  0.43504454     0.92600
C996        C  0.93317026  0.06916609  0.52308234     0.76900
O997        O  0.91661633  0.96598731  0.06901684    -0.49700
O998        O  0.92443681  0.54429924  0.49342686    -0.50800
O999        O  0.95968264  0.46122886  0.05775376    -0.63700
O1000       O  0.52517871  0.07306816  0.06503303    -0.64800
C1001       C  0.64100517  0.07938752  0.29100312     0.77700
Tb1002     Tb  0.96988445  0.01168552  0.28179163     1.80700
O1003       O  0.61211716  0.07250421  0.31627136    -0.50300
O1004       O  0.56029078  0.45929243  0.28958018    -0.57800
C1005       C  0.54965830  0.09359855  0.28185703     0.93500
O1006       O  0.93783180  0.05124867  0.29513479    -0.57300
Tb1007     Tb  0.56004704  0.01655892  0.28081303     1.78100
O1008       O  0.90063461  0.45697190  0.25738519    -0.57800
O1009       O  0.00476999  0.45802509  0.23907725    -0.76600
O1010       O  0.55567147  0.07279529  0.25483895    -0.75900
O1011       O  0.54601779  0.01783441  0.20442100    -0.61200
C1012       C  0.97579040  0.43376666  0.26245441     0.93100
O1013       O  0.98321366  0.01288627  0.35747959    -0.73100
C1014       C  0.88507253  0.95745393  0.28924650     0.76600
C1015       C  0.58726833  0.46306879  0.26293672     0.77500
O1016       O  0.62963622  0.05558715  0.26059078    -0.58400
O1017       O  0.59797352  0.49374850  0.23910784    -0.50300
O1018       O  0.98453641  0.01246342  0.20319770    -0.76400
O1019       O  0.54128966  0.01452618  0.35943349    -0.60400
C1020       C  0.51199828  0.01491933  0.38298094     0.91300
C1021       C  0.51464311  0.01513905  0.18454097     0.92600
C1022       C  0.94810174  0.07203270  0.26190916     0.76900
O1023       O  0.90500653  0.98521209  0.31469773    -0.49700
O1024       O  0.95966553  0.56029453  0.23280449    -0.50800
O1025       O  0.96373064  0.44898346  0.29068119    -0.63700
O1026       O  0.52416781  0.07397651  0.31064305    -0.64800
C1027       C  0.66692281  0.32601917  0.99967854     0.31300
C1028       C  0.65711432  0.31362532  0.08000974     0.31300
C1029       C  0.63641905  0.33780680  0.01972178    -0.04900
C1030       C  0.65169134  0.28127692  0.01376201    -0.05700
C1031       C  0.70596021  0.35162315  0.02342114    -0.05600
C1032       C  0.63103577  0.33144504  0.06189089    -0.04900
C1033       C  0.64630985  0.27491431  0.05512002    -0.05700
C1034       C  0.70128816  0.34547514  0.06535054    -0.05600
C1035       C  0.61904111  0.35940188  0.07652328    -0.31000
N1036       N  0.61479603  0.38027781  0.04438585     0.15500
C1037       C  0.62725835  0.36862405  0.00983469    -0.31000
H1038       H  0.62443452  0.37839940  0.47659791     0.17500
C1039       C  0.62777162  0.23270320  0.06262375    -0.30000
N1040       N  0.62215476  0.21331448  0.02592071     0.14300
C1041       C  0.63705731  0.24292616  0.99573000    -0.29900
C1042       C  0.73894594  0.37226520  0.08183712    -0.30200
N1043       N  0.76598371  0.39370077  0.05037376     0.14800
H1044       H  0.74616915  0.37589524  0.11411730     0.17400
C1045       C  0.74562372  0.38186101  0.01465298    -0.30200
H1046       H  0.75050353  0.38402692  0.47133416     0.17400
H1047       H  0.61627325  0.22572129  0.47622873     0.17400
H1048       H  0.61641833  0.36630084  0.10845722     0.17500
H1049       H  0.61826472  0.21745705  0.09249357     0.17400
C1050       C  0.65887455  0.31089731  0.24816343     0.31300
C1051       C  0.66620519  0.32034165  0.32839949     0.31300
C1052       C  0.64457888  0.34078367  0.26590918    -0.04900
C1053       C  0.63530767  0.27126929  0.27353344    -0.05700
C1054       C  0.70337913  0.32968564  0.26272610    -0.05600
C1055       C  0.64861477  0.34542497  0.30773122    -0.04900
C1056       C  0.63912809  0.27587363  0.31482915    -0.05700
C1057       C  0.70722066  0.33463576  0.30478464    -0.05600
C1058       C  0.63425700  0.37185515  0.32000189    -0.31000
N1059       N  0.62114269  0.38337428  0.28660985     0.15500
C1060       C  0.62775216  0.36511662  0.25297893    -0.31000
H1061       H  0.61990607  0.36845328  0.22189892     0.17500
C1062       C  0.61695433  0.23693716  0.33300712    -0.30000
N1063       N  0.59989786  0.20890204  0.30273442     0.14300
C1064       C  0.61078697  0.22985933  0.26607837    -0.29900
C1065       C  0.74730026  0.36451897  0.31148899    -0.30200
N1066       N  0.76829689  0.37633624  0.27477467     0.14800
H1067       H  0.75935052  0.37813770  0.34081555     0.17400
C1068       C  0.74129147  0.35661955  0.24484143    -0.30200
H1069       H  0.74823245  0.36341266  0.21226660     0.17400
H1070       H  0.60170202  0.21632180  0.23607472     0.17400
H1071       H  0.63306424  0.38194279  0.35101499     0.17500
H1072       H  0.61418948  0.22945543  0.36556918     0.17400
C1073       C  0.62815696  0.31419143  0.43474622    -0.12100
C1074       C  0.66192469  0.31792014  0.45532219     0.10100
C1075       C  0.69285316  0.31325725  0.43480337    -0.12100
C1076       C  0.69556541  0.31601796  0.39308127    -0.12100
C1077       C  0.66608738  0.32127530  0.37246254     0.10100
C1078       C  0.63014283  0.31560564  0.39296806    -0.12100
H1079       H  0.60069637  0.31039835  0.45073932     0.14100
H1080       H  0.71543013  0.30860428  0.45087596     0.14100
H1081       H  0.71970737  0.31273565  0.37731605     0.14100
H1082       H  0.60352079  0.31170507  0.37674348     0.14100
C1083       C  0.68016390  0.29438670  0.14118141    -0.12100
C1084       C  0.65132557  0.30268469  0.12307523     0.10100
C1085       C  0.61649284  0.29741165  0.14527669    -0.12100
C1086       C  0.61722075  0.29656755  0.18723071    -0.12100
C1087       C  0.65276830  0.30123528  0.20518381     0.10100
C1088       C  0.68053961  0.29303878  0.18297981    -0.12100
H1089       H  0.70401007  0.29234185  0.12323093     0.14100
H1090       H  0.59014369  0.29614356  0.13075788     0.14100
H1091       H  0.59184119  0.29535206  0.20529434     0.14100
H1092       H  0.70416903  0.28892634  0.19747993     0.14100
C1093       C  0.57196336  0.13892586  0.27806428    -0.15200
C1094       C  0.57580384  0.16465608  0.30878090    -0.30300
H1095       H  0.58792329  0.15143292  0.24878634     0.13900
H1096       H  0.56237070  0.15215612  0.33906801     0.14400
C1097       C  0.83625802  0.42799607  0.29695464    -0.15200
C1098       C  0.81129976  0.40511031  0.26712688    -0.30300
H1099       H  0.82671547  0.92949640  0.32434198     0.13900
H1100       H  0.82388101  0.40802481  0.23599176     0.14400
C1101       C  0.60486275  0.43487374  0.25892527    -0.15200
C1102       C  0.60106840  0.40829718  0.28904376    -0.30300
H1103       H  0.62324502  0.43765078  0.23143606     0.13900
H1104       H  0.58514521  0.40785552  0.31769158     0.14400
C1105       C  0.60225391  0.16922493  0.01899050    -0.15200
C1106       C  0.57532760  0.14171801  0.04666381    -0.30300
H1107       H  0.60786526  0.15830487  0.98977349     0.13900
H1108       H  0.56781298  0.15264604  0.07483066     0.14400
C1109       C  0.83610667  0.43207685  0.02265071    -0.15200
C1110       C  0.80878509  0.42394620  0.05413203    -0.30300
H1111       H  0.83693794  0.90819183  0.07998874     0.13900
H1112       H  0.81922434  0.43932883  0.08333151     0.14400
C1113       C  0.60030762  0.41001765  0.04749023    -0.15200
C1114       C  0.59972407  0.43181585  0.01458985    -0.30300
H1115       H  0.58862138  0.41401422  0.07714380     0.13900
H1116       H  0.61243037  0.42948533  0.98504009     0.14400
C1117       C  0.91635063  0.11312686  0.28269443    -0.15200
C1118       C  0.93565050  0.10348876  0.25286180    -0.30300
H1119       H  0.91152110  0.09826689  0.31282293     0.13900
H1120       H  0.94232384  0.11844693  0.22273261     0.14400
C1121       C  0.93722877  0.36198663  0.28790917    -0.15200
C1122       C  0.95773468  0.38882964  0.25706341    -0.30300
H1123       H  0.93428714  0.37374111  0.31775079     0.13900
H1124       H  0.96327225  0.37796977  0.22784962     0.14400
C1125       C  0.71257717  0.12072799  0.26690888    -0.15200
C1126       C  0.68383395  0.11155608  0.29680726    -0.30300
H1127       H  0.70369637  0.10536918  0.23746610     0.13900
H1128       H  0.69169351  0.12811550  0.32562234     0.14400
C1129       C  0.92469184  0.12927427  0.54555092    -0.15200
C1130       C  0.91783540  0.09911713  0.51856075    -0.30300
H1131       H  0.94094421  0.13131021  0.57348467     0.13900
H1132       H  0.90568897  0.09990992  0.99363919     0.14400
C1133       C  0.94110924  0.36495989  0.01437794    -0.15200
C1134       C  0.94224685  0.39205311  0.04250338    -0.30300
H1135       H  0.91712461  0.37661102  0.48094020     0.13900
H1136       H  0.92295220  0.38095253  0.07026717     0.14400
C1137       C  0.68545569  0.10603268  0.05066875    -0.15200
C1138       C  0.71409261  0.11050477  0.02220147    -0.30300
H1139       H  0.69370777  0.12473289  0.07813906     0.13900
H1140       H  0.69321185  0.11606270  0.48643671     0.14400
C1141       C  0.89424302  0.21420608  0.42167368    -0.12100
C1142       C  0.86053678  0.21209790  0.44293557     0.10100
C1143       C  0.83148234  0.21907307  0.42306553    -0.12100
C1144       C  0.82959785  0.21627188  0.38171098    -0.12100
C1145       C  0.85816116  0.20867499  0.36078105     0.10100
C1146       C  0.89344788  0.21346676  0.37997711    -0.12100
H1147       H  0.92111439  0.21737559  0.43671454     0.14100
H1148       H  0.80943268  0.22515134  0.43970564     0.14100
H1149       H  0.80652107  0.22070021  0.36642074     0.14100
H1150       H  0.92006218  0.21641895  0.36287478     0.14100
C1151       C  0.85143808  0.24591549  0.13340607    -0.12100
C1152       C  0.85152436  0.21391764  0.11100362     0.10100
C1153       C  0.84488192  0.17723203  0.13024269    -0.12100
C1154       C  0.85117188  0.17771548  0.17110445    -0.12100
C1155       C  0.86201797  0.21426934  0.19238673     0.10100
C1156       C  0.85618868  0.24575754  0.17475571    -0.12100
H1157       H  0.84800181  0.27067035  0.11948949     0.14100
H1158       H  0.83817508  0.14953558  0.11312825     0.14100
H1159       H  0.84623125  0.14929397  0.18586866     0.14100
H1160       H  0.85445447  0.26953725  0.19272125     0.14100
C1161       C  0.85070403  0.21397134  0.56716995     0.31300
C1162       C  0.86276141  0.21302573  0.98673436     0.31300
C1163       C  0.81064911  0.18656151  0.54561850    -0.04900
C1164       C  0.86896980  0.25639712  0.54481053    -0.05700
C1165       C  0.87997864  0.19731404  0.55271015    -0.05600
C1166       C  0.82112100  0.18287922  0.00597571    -0.04900
C1167       C  0.87241188  0.25569283  0.00289835    -0.05700
C1168       C  0.89236758  0.20214543  0.00887201    -0.05600
C1169       C  0.78329463  0.15381411  0.99264807    -0.31000
N1170       N  0.75677632  0.14011973  0.02540132     0.15500
C1171       C  0.76958341  0.16263716  0.55626218    -0.31000
H1172       H  0.75586507  0.15903823  0.58676744     0.17500
C1173       C  0.89915498  0.29480836  0.98746895    -0.30000
N1174       N  0.89949843  0.32016097  0.51680081     0.14300
C1175       C  0.88790747  0.29851249  0.55312276    -0.29900
C1176       C  0.90783308  0.17521165  0.00124523    -0.30200
N1177       N  0.91959723  0.16586826  0.03721657     0.14800
H1178       H  0.90806054  0.16133692  0.97203325     0.17400
C1179       C  0.89771607  0.17553424  0.56998318    -0.30200
H1180       H  0.89934776  0.17003285  0.60242575     0.17400
H1181       H  0.89415791  0.31272016  0.58299196     0.17400
H1182       H  0.77516745  0.14411933  0.96125561     0.17500
H1183       H  0.91002318  0.30278720  0.95578296     0.17400
C1184       C  0.85050418  0.20694615  0.81698332     0.31300
C1185       C  0.85474066  0.21123482  0.73607777     0.31300
C1186       C  0.80920194  0.19425420  0.79763333    -0.04900
C1187       C  0.87917971  0.25001451  0.79881360    -0.05700
C1188       C  0.86441613  0.17845368  0.79672135    -0.05600
C1189       C  0.81181644  0.19697589  0.75537471    -0.04900
C1190       C  0.88215779  0.25276202  0.75681509    -0.05700
C1191       C  0.86850250  0.18141238  0.75473433    -0.05600
C1192       C  0.77295048  0.17269990  0.74108049    -0.31000
N1193       N  0.74665444  0.15503506  0.77349985     0.15500
C1194       C  0.76862869  0.16654834  0.80829963    -0.32800
H1195       H  0.75692876  0.15276275  0.83846883     0.17500
C1196       C  0.90478869  0.29469385  0.74658182    -0.30000
N1197       N  0.91377457  0.31679391  0.78194318     0.14300
C1198       C  0.89812524  0.28959613  0.81398074    -0.29900
C1199       C  0.88308110  0.15451158  0.74271732    -0.30200
N1200       N  0.88552657  0.13452599  0.77695999     0.14800
H1201       H  0.89050273  0.14922133  0.71169626     0.17400
C1202       C  0.87357598  0.14863813  0.80989299    -0.30200
H1203       H  0.87197281  0.13800420  0.84131979     0.17400
H1204       H  0.89830422  0.29808559  0.84588325     0.17400
H1205       H  0.76493141  0.16522637  0.70925585     0.17500
H1206       H  0.91160581  0.30822236  0.71591287     0.17400
C1207       C  0.63667905  0.07175166  0.54390723     0.77700
Tb1208     Tb  0.96236459  0.01177144  0.52682001     1.80700
O1209       O  0.61485981  0.04520709  0.57086337    -0.50300
O1210       O  0.56103869  0.46326503  0.54497685    -0.57800
C1211       C  0.54509304  0.09766238  0.52283888     0.93500
O1212       O  0.96752686  0.07761310  0.04935206    -0.57300
Tb1213     Tb  0.55285674  0.01748733  0.53640665     1.78100
O1214       O  0.89243955  0.47828837  0.50996251    -0.57800
O1215       O  0.99594880  0.45699354  0.55538005    -0.76600
O1216       O  0.55516309  0.08070180  0.55050040    -0.75900
O1217       O  0.54322954  0.01505962  0.95466996    -0.61200
C1218       C  0.96788500  0.43528567  0.53148874     0.93100
O1219       O  0.97951824  0.01558057  0.60502649    -0.73100
C1220       C  0.87976251  0.95390562  0.54668762     0.76600
C1221       C  0.58138581  0.46134811  0.51423777     0.77500
O1222       O  0.62998660  0.05280968  0.01369589    -0.58400
O1223       O  0.58568951  0.48613190  0.48543318    -0.50300
O1224       O  0.98292759  0.01316317  0.95117093    -0.76400
O1225       O  0.53684995  0.01483888  0.61174373    -0.60400
C1226       C  0.50715939  0.01575632  0.63257249     0.91300
C1227       C  0.51312044  0.01446742  0.93394753     0.92600
C1228       C  0.94103071  0.07489425  0.02412600     0.76900
O1229       O  0.90875769  0.96160205  0.57050270    -0.49700
O1230       O  0.96243805  0.57541517  0.99018964    -0.50800
O1231       O  0.96041326  0.45341465  0.50266357    -0.63700
O1232       O  0.51574839  0.07494042  0.50071128    -0.64800
C1233       C  0.63432318  0.07772418  0.79283296     0.77700
Tb1234     Tb  0.96489418  0.01243590  0.78338339     1.80700
O1235       O  0.60492330  0.06625872  0.81876932    -0.50300
O1236       O  0.56145389  0.45528263  0.78923965    -0.57800
C1237       C  0.54620518  0.09139612  0.77909498     0.93500
O1238       O  0.92903289  0.04870926  0.79711984    -0.57300
Tb1239     Tb  0.55534406  0.01349008  0.77785362     1.78100
O1240       O  0.89936542  0.45893790  0.75615462    -0.57800
O1241       O  0.00178929  0.45743311  0.73902705    -0.76600
O1242       O  0.55120254  0.06995102  0.75200429    -0.75900
O1243       O  0.53904843  0.01723789  0.70317274    -0.61200
C1244       C  0.97218657  0.43335977  0.76192530     0.93100
O1245       O  0.98235584  0.01514787  0.85861501    -0.73100
C1246       C  0.88065617  0.95540847  0.79245418     0.76600
C1247       C  0.58801607  0.45916005  0.76207411     0.77500
O1248       O  0.62430748  0.05762472  0.75990989    -0.58400
O1249       O  0.59677445  0.48874232  0.73730293    -0.50300
O1250       O  0.97829337  0.01150340  0.70433630    -0.76400
O1251       O  0.53842927  0.01014417  0.85695559    -0.60400
C1252       C  0.51135975  0.01328491  0.88176870     0.91300
C1253       C  0.50731750  0.01465850  0.68426866     0.92600
C1254       C  0.93781636  0.06903482  0.76364982     0.76900
O1255       O  0.90099325  0.98121462  0.81941559    -0.49700
O1256       O  0.96023178  0.56290094  0.73187265    -0.50800
O1257       O  0.95996390  0.44896770  0.78970213    -0.63700
O1258       O  0.52112393  0.07256996  0.80847102    -0.64800
C1259       C  0.66225577  0.32073539  0.49931626     0.31300
C1260       C  0.66317690  0.32083749  0.58029653     0.31300
C1261       C  0.64294124  0.34500061  0.51966562    -0.04900
C1262       C  0.63989814  0.27782883  0.51941568    -0.05700
C1263       C  0.70524256  0.34130296  0.51717516    -0.05600
C1264       C  0.64344310  0.34502060  0.56193555    -0.04900
C1265       C  0.64058403  0.27808194  0.56119459    -0.05700
C1266       C  0.70616176  0.34115956  0.55947337    -0.05600
C1267       C  0.62871695  0.37081610  0.57554868    -0.31000
N1268       N  0.61875306  0.38594968  0.54234166     0.15500
C1269       C  0.62786393  0.37081574  0.50786341    -0.31000
H1270       H  0.63225354  0.38317490  0.97980371     0.17500
C1271       C  0.62228773  0.23756649  0.57504650    -0.30000
N1272       N  0.60997635  0.21256262  0.54207454     0.14300
C1273       C  0.62058666  0.23683754  0.50747799    -0.29900
C1274       C  0.74495271  0.37188237  0.57007251    -0.30200
N1275       N  0.76714583  0.38964235  0.53485818     0.14800
H1276       H  0.75504216  0.38264613  0.60078452     0.17400
C1277       C  0.74247951  0.37267865  0.50281855    -0.30200
H1278       H  0.75843701  0.39506583  0.98456285     0.17400
H1279       H  0.63541392  0.23685375  0.96306521     0.17400
H1280       H  0.62643821  0.37905970  0.60708205     0.17500
H1281       H  0.61895660  0.22696359  0.60672448     0.17400
C1282       C  0.66116155  0.30882973  0.74845447     0.31300
C1283       C  0.66937543  0.31700061  0.82865256     0.31300
C1284       C  0.64904375  0.34006760  0.76693587    -0.04900
C1285       C  0.63639781  0.26919314  0.77315771    -0.05700
C1286       C  0.70553776  0.32554641  0.76247960    -0.05600
C1287       C  0.65331501  0.34401470  0.80872763    -0.04900
C1288       C  0.64057108  0.27300016  0.81453577    -0.05700
C1289       C  0.70996549  0.33003559  0.80472173    -0.05600
C1290       C  0.64017948  0.37141639  0.82152027    -0.31000
N1291       N  0.62803741  0.38445000  0.78830814     0.15500
C1292       C  0.63389775  0.36599865  0.75446474    -0.31000
H1293       H  0.62643850  0.37013207  0.72348389     0.17500
C1294       C  0.61728987  0.23383369  0.83189943    -0.30000
N1295       N  0.59948564  0.20658291  0.80108577     0.14300
C1296       C  0.61090466  0.22820218  0.76484508    -0.29900
C1297       C  0.74910745  0.36253804  0.81040378    -0.30200
N1298       N  0.76915743  0.37558061  0.77351478     0.14800
H1299       H  0.76081163  0.37774306  0.83917485     0.17400
C1300       C  0.74232788  0.35464155  0.74413200    -0.30200
H1301       H  0.74820459  0.36257935  0.71166107     0.17400
H1302       H  0.60167358  0.21536363  0.73459765     0.17400
H1303       H  0.63879467  0.38075450  0.85281206     0.17500
H1304       H  0.61438585  0.22559763  0.86427396     0.17400
C1305       C  0.63430748  0.31808512  0.93431784    -0.12100
C1306       C  0.67020107  0.32878218  0.95544692     0.10100
C1307       C  0.70371741  0.32801738  0.93598739    -0.12100
C1308       C  0.70355574  0.32270791  0.89448159    -0.12100
C1309       C  0.66998129  0.31854983  0.87288909     0.10100
C1310       C  0.63415065  0.31267539  0.89315887    -0.12100
H1311       H  0.60577689  0.31211272  0.94955668     0.14100
H1312       H  0.72880974  0.32911275  0.95294363     0.14100
H1313       H  0.72874682  0.32036722  0.88004446     0.14100
H1314       H  0.60626695  0.30453289  0.87690024     0.14100
C1315       C  0.68771255  0.30360629  0.64130291    -0.12100
C1316       C  0.66104815  0.31563620  0.62405297     0.10100
C1317       C  0.62515032  0.30877240  0.64551970    -0.12100
C1318       C  0.62215172  0.30109818  0.68683669    -0.12100
C1319       C  0.65513727  0.30057166  0.70523060     0.10100
C1320       C  0.68366184  0.29437016  0.68216532    -0.12100
H1321       H  0.71138791  0.30128873  0.62337108     0.14100
H1322       H  0.59983867  0.30948906  0.63074745     0.14100
H1323       H  0.59607764  0.29870151  0.70456289     0.14100
H1324       H  0.70519532  0.28657441  0.69607314     0.14100
C1325       C  0.56960855  0.13672772  0.77525531    -0.15200
C1326       C  0.57424778  0.16237810  0.80633809    -0.30300
H1327       H  0.58562841  0.14916675  0.74597506     0.13900
H1328       H  0.56059094  0.14970028  0.83650900     0.14400
C1329       C  0.83523101  0.43039316  0.79513720    -0.15200
C1330       C  0.81116729  0.40651203  0.76541435    -0.30300
H1331       H  0.82342362  0.92085984  0.82903626     0.13900
H1332       H  0.82392642  0.40958489  0.73433035     0.14400
C1333       C  0.60733893  0.43235724  0.75877399    -0.15200
C1334       C  0.60846589  0.40996453  0.79088363    -0.30300
H1335       H  0.62276637  0.43278957  0.72985684     0.13900
H1336       H  0.59549570  0.41223236  0.82047340     0.14400
C1337       C  0.59170061  0.16823019  0.54513873    -0.15200
C1338       C  0.56603682  0.14307339  0.51707107    -0.30300
H1339       H  0.59678081  0.15488804  0.57280091     0.13900
H1340       H  0.55867235  0.15601832  0.49061294     0.14400
C1341       C  0.83853858  0.42817871  0.55484593    -0.15200
C1342       C  0.80846975  0.42295467  0.52970399    -0.30300
H1343       H  0.82707517  0.90501340  0.58393034     0.13900
H1344       H  0.81636640  0.44146102  0.50145880     0.14400
C1345       C  0.60112783  0.41299397  0.54474487    -0.15200
C1346       C  0.59913575  0.43364883  0.51168390    -0.30300
H1347       H  0.58979889  0.41719580  0.57452605     0.13900
H1348       H  0.61210934  0.43161336  0.48213756     0.14400
C1349       C  0.89735634  0.10295211  0.78079912    -0.15200
C1350       C  0.92265372  0.09830506  0.75387076    -0.30300
H1351       H  0.88798961  0.08440377  0.80908864     0.13900
H1352       H  0.93352229  0.11707628  0.72586160     0.14400
C1353       C  0.93103980  0.36097540  0.78636580    -0.15200
C1354       C  0.95361276  0.38815094  0.75640262    -0.30300
H1355       H  0.92660567  0.37257626  0.81571855     0.13900
H1356       H  0.96055326  0.37720878  0.72791148     0.14400
C1357       C  0.70459720  0.12399056  0.76897717    -0.15200
C1358       C  0.67644406  0.11086755  0.79998518    -0.30300
H1359       H  0.69528914  0.11125568  0.73850659     0.13900
H1360       H  0.68425978  0.12427622  0.83030976     0.14400
C1361       C  0.93550393  0.13752496  0.04367271    -0.15200
C1362       C  0.92603173  0.10514181  0.01891893    -0.30300
H1363       H  0.95378956  0.14135573  0.07048231     0.13900
H1364       H  0.89940746  0.09545524  0.49198308     0.14400
C1365       C  0.91978747  0.36434394  0.51047635    -0.15200
C1366       C  0.94451613  0.39022712  0.53855164    -0.30300
H1367       H  0.95843222  0.37638904  0.98544257     0.13900
H1368       H  0.94948539  0.37792426  0.56692040     0.14400
C1369       C  0.68060433  0.09935692  0.54900257    -0.15200
C1370       C  0.70559907  0.11997123  0.51704517    -0.30300
H1371       H  0.69282445  0.10083029  0.57926712     0.13900
H1372       H  0.70465947  0.09242403  0.99426954     0.14400
C1373       C  0.89369420  0.21482292  0.91875762    -0.12100
C1374       C  0.86209270  0.21404794  0.94274668     0.10100
C1375       C  0.83051459  0.21886117  0.92545638    -0.12100
C1376       C  0.82545285  0.21495881  0.88430555    -0.12100
C1377       C  0.85324026  0.20829651  0.86078884     0.10100
C1378       C  0.88959259  0.21278784  0.87733122    -0.12100
H1379       H  0.92155488  0.21800261  0.93142772     0.14100
H1380       H  0.80888458  0.22392998  0.94414028     0.14100
H1381       H  0.80077759  0.21823684  0.87120950     0.14100
H1382       H  0.91462530  0.21455577  0.85818910     0.14100
C1383       C  0.84326923  0.24399370  0.63255524    -0.12100
C1384       C  0.84265638  0.21135849  0.61074331     0.10100
C1385       C  0.83309090  0.17402876  0.63048508    -0.12100
C1386       C  0.83848578  0.17448046  0.67156282    -0.12100
C1387       C  0.85186547  0.21189694  0.69221432     0.10100
C1388       C  0.84785766  0.24422041  0.67401472    -0.12100
H1389       H  0.83998037  0.26857109  0.61821835     0.14100
H1390       H  0.82502675  0.14581428  0.61372900     0.14100
H1391       H  0.83129685  0.14558705  0.68685001     0.14100
H1392       H  0.84734457  0.26882564  0.69161583     0.14100
C1393       C  0.84873712  0.71926791  0.06561130     0.31300
C1394       C  0.85380334  0.70962902  0.48499701     0.31300
C1395       C  0.80867275  0.68872656  0.04539510    -0.04900
C1396       C  0.86226225  0.76108655  0.04349610    -0.05700
C1397       C  0.88105548  0.70694893  0.04985029    -0.05600
C1398       C  0.81233921  0.67852498  0.50374770    -0.04900
C1399       C  0.86171231  0.75185162  0.50069191    -0.05700
C1400       C  0.88382381  0.69994319  0.50778942    -0.05600
C1401       C  0.77525504  0.64863705  0.48978720    -0.31000
N1402       N  0.74805831  0.63421532  0.52196629     0.15500
C1403       C  0.76845170  0.66082374  0.05715446    -0.31000
H1404       H  0.75519237  0.65490906  0.08807322     0.17500
C1405       C  0.88601294  0.79128612  0.48460778    -0.30000
N1406       N  0.90389565  0.82425694  0.01622849     0.14300
C1407       C  0.89009114  0.80216980  0.05204364    -0.29900
C1408       C  0.89807729  0.67205928  0.50028790    -0.30200
N1409       N  0.90864703  0.66151012  0.53616921     0.14800
H1410       H  0.89796214  0.65819837  0.47100133     0.17400
C1411       C  0.89618992  0.68224225  0.06602603    -0.30200
H1412       H  0.89698633  0.67524734  0.09821110     0.17400
H1413       H  0.90140034  0.81464567  0.08191731     0.17400
H1414       H  0.76793547  0.63916429  0.45821803     0.17500
H1415       H  0.89592203  0.79928966  0.45269228     0.17400
C1416       C  0.84780999  0.70345749  0.31480228     0.31300
C1417       C  0.85741058  0.71274462  0.23421476     0.31300
C1418       C  0.80801062  0.69164410  0.29293245    -0.04900
C1419       C  0.87710903  0.74761598  0.29954984    -0.05700
C1420       C  0.86366430  0.67671450  0.29408387    -0.05600
C1421       C  0.81319848  0.69690333  0.25104594    -0.04900
C1422       C  0.88305466  0.75267561  0.25784756    -0.05700
C1423       C  0.87036163  0.68223147  0.25237509    -0.05600
C1424       C  0.77487346  0.67568263  0.23438193    -0.31000
N1425       N  0.74658317  0.65731597  0.26528656     0.15500
C1426       C  0.76664536  0.66571777  0.30124830    -0.32800
H1427       H  0.75288552  0.65096958  0.33058810     0.17500
C1428       C  0.90815369  0.79460148  0.25006059    -0.30000
N1429       N  0.91556358  0.81480177  0.28645955     0.14300
C1430       C  0.89670529  0.78621355  0.31695582    -0.29900
C1431       C  0.88659913  0.65694640  0.23992650    -0.30200
N1432       N  0.88779789  0.63552233  0.27357674     0.14800
H1433       H  0.89617165  0.65394494  0.20900908     0.17400
C1434       C  0.87334151  0.64712908  0.30654653    -0.30200
H1435       H  0.87043231  0.63497029  0.33754591     0.17400
H1436       H  0.89572158  0.79318819  0.34917886     0.17400
H1437       H  0.76833710  0.67086870  0.20198180     0.17500
H1438       H  0.91816633  0.80951179  0.22012046     0.17400
C1439       C  0.63296018  0.57566436  0.03511460     0.77700
Tb1440     Tb  0.96394113  0.52097562  0.02765930     1.80700
O1441       O  0.60221914  0.57094900  0.05659254    -0.50300
O1442       O  0.59657891  0.98244178  0.04649877    -0.57800
C1443       C  0.55124185  0.59841637  0.00994445     0.93500
O1444       O  0.95815178  0.57459428  0.54531890    -0.57300
Tb1445     Tb  0.55243090  0.51627831  0.01743212     1.78100
O1446       O  0.90115460  0.97847732  0.01069945    -0.57800
O1447       O  0.00526449  0.95929929  0.05896064    -0.76600
O1448       O  0.55584058  0.57464702  0.98538518    -0.75900
O1449       O  0.53894038  0.51750231  0.44209961    -0.61200
C1450       C  0.97767745  0.93782715  0.03448498     0.93100
O1451       O  0.97950683  0.52030158  0.10326533    -0.73100
C1452       C  0.88004045  0.46297277  0.02461521     0.76600
C1453       C  0.58583060  0.95847062  0.01633585     0.77500
O1454       O  0.62092346  0.55403929  0.50193814    -0.58400
O1455       O  0.56177246  0.96343840  0.99329791    -0.50300
O1456       O  0.97788187  0.51244363  0.44570604    -0.76400
O1457       O  0.53573991  0.51640793  0.09563884    -0.60400
C1458       C  0.50774697  0.51836009  0.11986982     0.91300
C1459       C  0.50857112  0.51668518  0.42248995     0.92600
C1460       C  0.93403338  0.57364768  0.51814738     0.76900
O1461       O  0.89483073  0.49066577  0.05147323    -0.49700
O1462       O  0.92281498  0.03916850  0.49905241    -0.50800
O1463       O  0.97027778  0.95652467  0.00626257    -0.63700
O1464       O  0.52536900  0.58215083  0.03924522    -0.64800
C1465       C  0.63332261  0.58112280  0.28156144     0.77700
Tb1466     Tb  0.96471384  0.51207632  0.27745129     1.80700
O1467       O  0.60410693  0.56908043  0.30777262    -0.50300
O1468       O  0.55966280  0.95880742  0.31316190    -0.57800
C1469       C  0.54499237  0.59482054  0.26852448     0.93500
O1470       O  0.93033612  0.54941781  0.29130141    -0.57300
Tb1471     Tb  0.55405793  0.51722968  0.26665633     1.78100
O1472       O  0.90710410  0.95635961  0.25965496    -0.57800
O1473       O  0.00918946  0.95437759  0.24627939    -0.76600
O1474       O  0.55005681  0.57384985  0.24096805    -0.75900
O1475       O  0.54056716  0.52051758  0.19089903    -0.61200
C1476       C  0.97898970  0.93112703  0.26894151     0.93100
O1477       O  0.97995298  0.51508545  0.35292106    -0.73100
C1478       C  0.88042191  0.45643217  0.28936691     0.76600
C1479       C  0.58741521  0.95835964  0.29033690     0.77500
O1480       O  0.62308122  0.56175264  0.24824178    -0.58400
O1481       O  0.60136857  0.98658866  0.26295457    -0.50300
O1482       O  0.97957973  0.51216865  0.19867864    -0.76400
O1483       O  0.53555187  0.51416228  0.34572488    -0.60400
C1484       C  0.50732102  0.51564171  0.37031519     0.91300
C1485       C  0.50874753  0.51728337  0.17178120     0.92600
C1486       C  0.93801597  0.56867167  0.25733229     0.76900
O1487       O  0.90194892  0.48309162  0.31507091    -0.49700
O1488       O  0.96969866  0.06308787  0.23786340    -0.50800
O1489       O  0.96641419  0.94729934  0.29580989    -0.63700
O1490       O  0.51922639  0.57522956  0.29714957    -0.64800
C1491       C  0.67226550  0.82005440  0.99039131     0.31300
C1492       C  0.67315969  0.81976182  0.07116940     0.31300
C1493       C  0.65661480  0.84773992  0.01051788    -0.04900
C1494       C  0.64655456  0.77759605  0.01068745    -0.05700
C1495       C  0.71512620  0.83652658  0.00795559    -0.05600
C1496       C  0.65765893  0.84776644  0.05278152    -0.04900
C1497       C  0.64681280  0.77761137  0.05233413    -0.05700
C1498       C  0.71576168  0.83604848  0.05051151    -0.05600
C1499       C  0.64544323  0.87532911  0.06676153    -0.31000
N1500       N  0.63557261  0.89114069  0.03399302     0.15500
C1501       C  0.64264616  0.87485658  0.99912711    -0.31000
H1502       H  0.62713453  0.88328682  0.47401384     0.17500
C1503       C  0.62162781  0.73756230  0.06626790    -0.30000
N1504       N  0.60653218  0.71306917  0.03318323     0.14300
C1505       C  0.62157116  0.73728542  0.99868995    -0.29900
C1506       C  0.75393801  0.86740285  0.06135475    -0.30200
N1507       N  0.77646497  0.88553972  0.02660834     0.14800
H1508       H  0.76308621  0.87871985  0.09212084     0.17400
C1509       C  0.75242038  0.86848819  0.99419588    -0.30200
H1510       H  0.75152150  0.89412821  0.47013519     0.17400
H1511       H  0.62991733  0.73692668  0.45336862     0.17400
H1512       H  0.64401359  0.88362295  0.09846665     0.17500
H1513       H  0.61499956  0.72690105  0.09803783     0.17400
C1514       C  0.66823693  0.81148440  0.23971217     0.31300
C1515       C  0.67104854  0.82100139  0.31982077     0.31300
C1516       C  0.65710186  0.84453258  0.25497851    -0.04900
C1517       C  0.64031677  0.77262316  0.26440725    -0.05700
C1518       C  0.71116830  0.82641630  0.25690041    -0.05600
C1519       C  0.65828828  0.84908776  0.29681373    -0.04900
C1520       C  0.64159657  0.77698812  0.30583397    -0.05700
C1521       C  0.71284104  0.83197770  0.29908835    -0.05600
C1522       C  0.64733000  0.87901032  0.30621506    -0.31000
N1523       N  0.63928977  0.89262870  0.27061663     0.15500
C1524       C  0.64613241  0.87251852  0.23897632    -0.31000
H1525       H  0.64276177  0.87760123  0.20683248     0.17500
C1526       C  0.61606905  0.73804157  0.32313688    -0.30000
N1527       N  0.59986054  0.71042653  0.29216975     0.14300
C1528       C  0.61443514  0.73175025  0.25597425    -0.29900
C1529       C  0.75223016  0.86340690  0.30666400    -0.30200
N1530       N  0.77492694  0.87478067  0.27105923     0.14800
H1531       H  0.76247425  0.87879645  0.33567616     0.17400
C1532       C  0.74968226  0.85386339  0.24047013    -0.30200
H1533       H  0.75797646  0.86089164  0.20814439     0.17400
H1534       H  0.60736036  0.71881628  0.22553550     0.17400
H1535       H  0.64571843  0.89034478  0.33651436     0.17500
H1536       H  0.61080804  0.73017581  0.35564946     0.17400
C1537       C  0.63202468  0.82363786  0.42368179    -0.12100
C1538       C  0.66516526  0.82819516  0.44637416     0.10100
C1539       C  0.69749081  0.82430630  0.42816749    -0.12100
C1540       C  0.69953430  0.82160227  0.38679633    -0.12100
C1541       C  0.66946239  0.82328923  0.36371552     0.10100
C1542       C  0.63416669  0.82101413  0.38213499    -0.12100
H1543       H  0.60387871  0.82010993  0.43768234     0.14100
H1544       H  0.72010217  0.82140746  0.44611162     0.14100
H1545       H  0.72365610  0.81666764  0.37349482     0.14100
H1546       H  0.60824356  0.81678750  0.36436266     0.14100
C1547       C  0.69680249  0.80284245  0.13364024    -0.12100
C1548       C  0.67051979  0.81459101  0.11494867     0.10100
C1549       C  0.63469675  0.80897803  0.13548785    -0.12100
C1550       C  0.63112024  0.80239902  0.17690857    -0.12100
C1551       C  0.66394822  0.80267442  0.19657389     0.10100
C1552       C  0.69288296  0.79591820  0.17500584    -0.12100
H1553       H  0.72041250  0.79957354  0.11666490     0.14100
H1554       H  0.61005995  0.81024102  0.11978112     0.14100
H1555       H  0.60502775  0.80100814  0.19377693     0.14100
H1556       H  0.71416955  0.78857656  0.19013315     0.14100
C1557       C  0.56958969  0.64034114  0.26610969    -0.15200
C1558       C  0.57358489  0.66612416  0.29705423    -0.30300
H1559       H  0.58706285  0.65277925  0.23754733     0.13900
H1560       H  0.55826855  0.65348117  0.32664993     0.14400
C1561       C  0.84067937  0.92924323  0.29477942    -0.15200
C1562       C  0.81786305  0.90433254  0.26485709    -0.30300
H1563       H  0.82418366  0.42682775  0.32789516     0.13900
H1564       H  0.83226731  0.90585689  0.23491732     0.14400
C1565       C  0.60215684  0.92796011  0.29539790    -0.15200
C1566       C  0.62571788  0.92298140  0.26626490    -0.30300
H1567       H  0.59245077  0.90847514  0.32297823     0.13900
H1568       H  0.63286512  0.94056787  0.23751339     0.14400
C1569       C  0.57910448  0.66917686  0.03579212    -0.15200
C1570       C  0.57686079  0.64367757  0.00538226    -0.30300
H1571       H  0.56186654  0.65623722  0.06451896     0.13900
H1572       H  0.59595764  0.65597795  0.97763153     0.14400
C1573       C  0.84545868  0.92645963  0.05163134    -0.15200
C1574       C  0.81760927  0.91921910  0.02294883    -0.30300
H1575       H  0.82629614  0.41452585  0.99454615     0.13900
H1576       H  0.82719716  0.93679341  0.99407471     0.14400
C1577       C  0.62189834  0.92142015  0.03785726    -0.15200
C1578       C  0.60026869  0.92801349  0.00910917    -0.30300
H1579       H  0.62761544  0.93805929  0.06665480     0.13900
H1580       H  0.59230155  0.91039542  0.98092864     0.14400
C1581       C  0.90087543  0.60493943  0.27705840    -0.15200
C1582       C  0.92319718  0.59823757  0.24812081    -0.30300
H1583       H  0.89387420  0.58790523  0.30618615     0.13900
H1584       H  0.93155955  0.61508021  0.21893106     0.14400
C1585       C  0.93472852  0.85886312  0.29241284    -0.15200
C1586       C  0.95968422  0.88602343  0.26359950    -0.30300
H1587       H  0.92908554  0.87018294  0.32139077     0.13900
H1588       H  0.96760325  0.87502729  0.23571075     0.14400
C1589       C  0.70420559  0.62813824  0.25873094    -0.15200
C1590       C  0.67547017  0.61383008  0.28926838    -0.30300
H1591       H  0.69542150  0.61716461  0.22763574     0.13900
H1592       H  0.68296677  0.62561772  0.32021191     0.14400
C1593       C  0.92406143  0.63262779  0.54197745    -0.15200
C1594       C  0.91836602  0.60344190  0.51410863    -0.30300
H1595       H  0.93972550  0.63396267  0.57014459     0.13900
H1596       H  0.93835106  0.63250855  0.98032167     0.14400
C1597       C  0.93011203  0.86818265  0.01042855    -0.15200
C1598       C  0.95396419  0.89249763  0.04005094    -0.30300
H1599       H  0.92564922  0.87591955  0.48014041     0.13900
H1600       H  0.95627762  0.87911002  0.06895649     0.14400
C1601       C  0.67581671  0.60608009  0.04399778    -0.15200
C1602       C  0.70656787  0.60890960  0.01934821    -0.30300
H1603       H  0.68198680  0.62703799  0.06953298     0.13900
H1604       H  0.69651859  0.58944123  0.48785206     0.14400
C1605       C  0.88661506  0.71080018  0.41830376    -0.12100
C1606       C  0.85428802  0.71009858  0.44094285     0.10100
C1607       C  0.82268458  0.71352553  0.42209847    -0.12100
C1608       C  0.81890234  0.70895883  0.38084325    -0.12100
C1609       C  0.84749625  0.70220338  0.35876701     0.10100
C1610       C  0.88322280  0.70690461  0.37696743    -0.12100
H1611       H  0.91468164  0.71554093  0.43185367     0.14100
H1612       H  0.80032393  0.71844973  0.43963629     0.14100
H1613       H  0.79489402  0.71247198  0.36653350     0.14100
H1614       H  0.90910203  0.70903734  0.35906597     0.14100
C1615       C  0.84716194  0.75013004  0.13270818    -0.12100
C1616       C  0.84257633  0.71660318  0.10960757     0.10100
C1617       C  0.83402488  0.67915587  0.12840558    -0.12100
C1618       C  0.84295876  0.67930594  0.16849749    -0.12100
C1619       C  0.85736107  0.71619764  0.19026478     0.10100
C1620       C  0.85446164  0.74982673  0.17353445    -0.12100
H1621       H  0.84504320  0.77601498  0.11981126     0.14100
H1622       H  0.82439756  0.65092726  0.11115644     0.14100
H1623       H  0.83633088  0.65005437  0.18262451     0.14100
H1624       H  0.85562770  0.77467378  0.19200841     0.14100
C1625       C  0.84777628  0.71333839  0.56536806     0.31300
C1626       C  0.85397113  0.71590598  0.98516123     0.31300
C1627       C  0.80848280  0.68126240  0.54507855    -0.04900
C1628       C  0.85967635  0.75457552  0.54282502    -0.05700
C1629       C  0.88161168  0.70288576  0.55016271    -0.05600
C1630       C  0.81215198  0.68596999  0.00402172    -0.04900
C1631       C  0.86348526  0.75841617  0.00122938    -0.05700
C1632       C  0.88312814  0.70443511  0.00747173    -0.05600
C1633       C  0.77516691  0.65551471  0.99047165    -0.31000
N1634       N  0.74840257  0.64081863  0.02296260     0.15500
C1635       C  0.76804969  0.65376642  0.55640922    -0.31000
H1636       H  0.75435279  0.64895969  0.58705542     0.17500
C1637       C  0.88855428  0.79754672  0.98505073    -0.30000
N1638       N  0.89971324  0.81827641  0.51579187     0.14300
C1639       C  0.88578640  0.79608591  0.55151962    -0.29900
C1640       C  0.89615980  0.67553851  0.99936096    -0.30200
N1641       N  0.90559121  0.66351206  0.03509324     0.14800
H1642       H  0.89450071  0.66095978  0.97010725     0.17400
C1643       C  0.89879046  0.68019424  0.56683326    -0.30200
H1644       H  0.90053255  0.67433416  0.59913678     0.17400
H1645       H  0.89599203  0.80884417  0.58155964     0.17400
H1646       H  0.76790393  0.64498692  0.95917469     0.17500
H1647       H  0.89786762  0.80541358  0.95299365     0.17400
C1648       C  0.84738994  0.70552749  0.81531245     0.31300
C1649       C  0.85596996  0.71324514  0.73449306     0.31300
C1650       C  0.80680439  0.68921883  0.79350595    -0.04900
C1651       C  0.87326836  0.75000348  0.79900449    -0.05700
C1652       C  0.86690838  0.68168843  0.79527576    -0.05600
C1653       C  0.81150690  0.69369288  0.75157607    -0.04900
C1654       C  0.87858436  0.75440559  0.75716230    -0.05700
C1655       C  0.87307468  0.68662988  0.75349552    -0.05600
C1656       C  0.77326247  0.67102934  0.73526230    -0.31000
N1657       N  0.74539206  0.65245463  0.76647726     0.15500
C1658       C  0.76567387  0.66259872  0.80242316    -0.32800
H1659       H  0.75227115  0.64906990  0.83225427     0.17500
C1660       C  0.90239979  0.79642474  0.74861387    -0.30000
N1661       N  0.91007754  0.81712734  0.78476332     0.14300
C1662       C  0.89240153  0.78888949  0.81575018    -0.29900
C1663       C  0.89144636  0.66324111  0.74135797    -0.30200
N1664       N  0.89426190  0.64315482  0.77523212     0.14800
H1665       H  0.90072251  0.66001587  0.71038795     0.17400
C1666       C  0.87887212  0.65391979  0.80809324    -0.30200
H1667       H  0.87608588  0.64178002  0.83908333     0.17400
H1668       H  0.89276656  0.79622536  0.84803643     0.17400
H1669       H  0.76653313  0.66585278  0.70291602     0.17500
H1670       H  0.91219784  0.81087285  0.71845033     0.17400
C1671       C  0.63234984  0.57170621  0.53601061     0.77700
Tb1672     Tb  0.96297176  0.51589975  0.52177857     1.80700
O1673       O  0.60294286  0.56319371  0.56123398    -0.50300
O1674       O  0.58497060  0.97864453  0.55215113    -0.57800
C1675       C  0.54820280  0.59795996  0.52887560     0.93500
O1676       O  0.93414127  0.56218848  0.04907621    -0.57300
Tb1677     Tb  0.55052688  0.51661138  0.51823335     1.78100
O1678       O  0.89210317  0.97378241  0.51297910    -0.57800
O1679       O  0.99668438  0.95521944  0.55977538    -0.76600
O1680       O  0.55554839  0.58037257  0.49917290    -0.75900
O1681       O  0.53874626  0.51460560  0.94128297    -0.61200
C1682       C  0.96977281  0.93296375  0.53484846     0.93100
O1683       O  0.97926643  0.51873449  0.59943782    -0.73100
C1684       C  0.88162771  0.45817940  0.54365086     0.76600
C1685       C  0.57503187  0.95658585  0.52059294     0.77500
O1686       O  0.62350430  0.55172142  0.00486515    -0.58400
O1687       O  0.55399544  0.96470233  0.49613045    -0.50300
O1688       O  0.97914448  0.51718841  0.94890712    -0.76400
O1689       O  0.53324525  0.51342540  0.59634568    -0.60400
C1690       C  0.50484369  0.51429005  0.62068960     0.91300
C1691       C  0.50859453  0.51448729  0.92166697     0.92600
C1692       C  0.94317834  0.58457735  0.01694344     0.76900
O1693       O  0.91134529  0.46606743  0.56646829    -0.49700
O1694       O  0.92861126  0.04342097  0.00191840    -0.50800
O1695       O  0.96217104  0.95101346  0.50616172    -0.63700
O1696       O  0.51932507  0.57569488  0.55356553    -0.64800
C1697       C  0.63222801  0.57520298  0.78229696     0.77700
Tb1698     Tb  0.96299781  0.51336836  0.77671558     1.80700
O1699       O  0.60235597  0.56423140  0.80756681    -0.50300
O1700       O  0.56361017  0.95573528  0.79784134    -0.57800
C1701       C  0.54428713  0.59011180  0.76314995     0.93500
O1702       O  0.93088961  0.55265835  0.79031771    -0.57300
Tb1703     Tb  0.55294394  0.51194798  0.76629753     1.78100
O1704       O  0.90207787  0.95755305  0.76091506    -0.57800
O1705       O  0.00479066  0.95718123  0.74514730    -0.76600
O1706       O  0.55074751  0.56845071  0.73752167    -0.75900
O1707       O  0.53769487  0.51510799  0.69107197    -0.61200
C1708       C  0.97511948  0.93348579  0.76820551     0.93100
O1709       O  0.97621453  0.51645432  0.85273375    -0.73100
C1710       C  0.87901105  0.45899703  0.78773398     0.76600
C1711       C  0.58999069  0.96055916  0.77001009     0.77500
O1712       O  0.62257554  0.55521191  0.74928347    -0.58400
O1713       O  0.59927343  0.99152992  0.74704413    -0.50300
O1714       O  0.97608999  0.51239466  0.69785319    -0.76400
O1715       O  0.53448624  0.51022502  0.84505968    -0.60400
C1716       C  0.50679918  0.51270501  0.86962560     0.91300
C1717       C  0.50594046  0.51252870  0.67229768     0.92600
C1718       C  0.93963112  0.57245499  0.75661850     0.76900
O1719       O  0.90013424  0.48590300  0.81337911    -0.49700
O1720       O  0.96094893  0.06200015  0.73985304    -0.50800
O1721       O  0.96386807  0.94926557  0.79662601    -0.63700
O1722       O  0.51923013  0.57162781  0.79269903    -0.64800
C1723       C  0.66167712  0.82537861  0.49040867     0.31300
C1724       C  0.65656529  0.81369731  0.57066323     0.31300
C1725       C  0.63105166  0.83589420  0.51182416    -0.04900
C1726       C  0.64840878  0.78112039  0.50433468    -0.05700
C1727       C  0.70155305  0.85225246  0.51238127    -0.05600
C1728       C  0.62865693  0.83042695  0.55434727    -0.04900
C1729       C  0.64541456  0.77493147  0.54572904    -0.05700
C1730       C  0.69991851  0.84606289  0.55412103    -0.05600
C1731       C  0.61935810  0.85987834  0.57016753    -0.31000
N1732       N  0.61324191  0.88026061  0.53894407     0.15500
C1733       C  0.62231775  0.86741806  0.50336828    -0.31000
H1734       H  0.63905222  0.88295928  0.96807247     0.17500
C1735       C  0.62825375  0.73279521  0.55301224    -0.30000
N1736       N  0.62105723  0.71355068  0.51606638     0.14300
C1737       C  0.63365951  0.74302237  0.48599460    -0.29900
C1738       C  0.73958192  0.87171616  0.56772416    -0.30200
N1739       N  0.76397956  0.89313517  0.53449710     0.14800
H1740       H  0.74970849  0.87479142  0.59905087     0.17400
C1741       C  0.74053868  0.88191763  0.50096653    -0.30200
H1742       H  0.76049343  0.88051805  0.96292621     0.17400
H1743       H  0.61442725  0.72665749  0.96742927     0.17400
H1744       H  0.62053404  0.86852503  0.60211248     0.17500
H1745       H  0.62032352  0.71739757  0.58286500     0.17400
C1746       C  0.66310118  0.81112787  0.74000183     0.31300
C1747       C  0.66774616  0.81158708  0.82061297     0.31300
C1748       C  0.64992687  0.84038485  0.76144955    -0.04900
C1749       C  0.63716342  0.76907282  0.76132007    -0.05700
C1750       C  0.70687270  0.82652087  0.75531864    -0.05600
C1751       C  0.65269859  0.84050842  0.80351437    -0.04900
C1752       C  0.63949888  0.76953521  0.80287566    -0.05700
C1753       C  0.70936459  0.82666804  0.79778001    -0.05600
C1754       C  0.63944241  0.86684928  0.81908294    -0.31000
N1755       N  0.62798458  0.88252507  0.78748650     0.15500
C1756       C  0.63467688  0.86697673  0.75179592    -0.31000
H1757       H  0.62774708  0.87339960  0.72140308     0.17500
C1758       C  0.61411770  0.72989280  0.81778133    -0.30000
N1759       N  0.59669010  0.70503886  0.78540106     0.14300
C1760       C  0.61053316  0.72875573  0.75040435    -0.29900
C1761       C  0.74843846  0.85773864  0.80683428    -0.30200
N1762       N  0.77021597  0.87469855  0.77134697     0.14800
H1763       H  0.75898846  0.86896197  0.83725737     0.17400
C1764       C  0.74451742  0.85726013  0.73999286    -0.30200
H1765       H  0.75177748  0.86831390  0.70836529     0.17400
H1766       H  0.60179144  0.71775935  0.71948002     0.17400
H1767       H  0.63755261  0.87378938  0.85114706     0.17500
H1768       H  0.60921458  0.71968911  0.84969184     0.17400
C1769       C  0.63469300  0.80949174  0.92786244    -0.12100
C1770       C  0.67042269  0.81584455  0.94662486     0.10100
C1771       C  0.69925233  0.80799997  0.92573847    -0.12100
C1772       C  0.69760201  0.80442480  0.88422389    -0.12100
C1773       C  0.66676367  0.80803967  0.86458575     0.10100
C1774       C  0.63238114  0.80437861  0.88644306    -0.12100
H1775       H  0.60903944  0.80867119  0.94507396     0.14100
H1776       H  0.72320114  0.80511837  0.94108185     0.14100
H1777       H  0.72059470  0.79971254  0.86779771     0.14100
H1778       H  0.60511884  0.80018535  0.87125493     0.14100
C1779       C  0.68313006  0.79742701  0.63111299    -0.12100
C1780       C  0.65277059  0.80380764  0.61397633     0.10100
C1781       C  0.61934717  0.80001106  0.63777547    -0.12100
C1782       C  0.62251629  0.80184529  0.67949347    -0.12100
C1783       C  0.65848332  0.80633218  0.69624592     0.10100
C1784       C  0.68590227  0.79844773  0.67277782    -0.12100
H1785       H  0.70612612  0.79472142  0.61231148     0.14100
H1786       H  0.59200340  0.79765545  0.62450180     0.14100
H1787       H  0.59775426  0.80093924  0.69841993     0.14100
H1788       H  0.71017047  0.79462760  0.68615734     0.14100
C1789       C  0.56700599  0.63554472  0.75844833    -0.15200
C1790       C  0.56969789  0.66100888  0.78896668    -0.30300
H1791       H  0.58470262  0.64827026  0.72998181     0.13900
H1792       H  0.55420684  0.64800797  0.81843398     0.14400
C1793       C  0.83647025  0.92580367  0.79802607    -0.15200
C1794       C  0.81278309  0.90596768  0.76617495    -0.30300
H1795       H  0.82296571  0.42919270  0.82597869     0.13900
H1796       H  0.82634919  0.91294496  0.73519829     0.14400
C1797       C  0.60834052  0.93317434  0.76357283    -0.15200
C1798       C  0.60871270  0.90806258  0.79328576    -0.30300
H1799       H  0.62373976  0.93538056  0.73413724     0.13900
H1800       H  0.59571074  0.90829804  0.82354921     0.14400
C1801       C  0.60015499  0.66963085  0.50877472    -0.15200
C1802       C  0.57234022  0.64277728  0.53607638    -0.30300
H1803       H  0.60493555  0.65857310  0.47926466     0.13900
H1804       H  0.56566292  0.65416964  0.56441027     0.14400
C1805       C  0.83569306  0.92507074  0.55681651    -0.15200
C1806       C  0.80698527  0.92334054  0.53140127    -0.30300
H1807       H  0.83171804  0.40906014  0.58247460     0.13900
H1808       H  0.81714569  0.94353738  0.50423630     0.14400
C1809       C  0.60380023  0.91336440  0.54375541    -0.15200
C1810       C  0.58659605  0.92427569  0.51369094    -0.30300
H1811       H  0.60850733  0.92807497  0.57357132     0.13900
H1812       H  0.57951361  0.90829710  0.48454015     0.14400
C1813       C  0.90789972  0.61306167  0.77860351    -0.15200
C1814       C  0.92697638  0.60381538  0.74818644    -0.30300
H1815       H  0.90274574  0.59743320  0.80834521     0.13900
H1816       H  0.93367208  0.61926408  0.71830663     0.14400
C1817       C  0.93000069  0.86123010  0.79067685    -0.15200
C1818       C  0.95478466  0.88843053  0.76176479    -0.30300
H1819       H  0.92546274  0.87259213  0.82012905     0.13900
H1820       H  0.96157856  0.87753513  0.73317570     0.14400
C1821       C  0.70321976  0.62242977  0.76009894    -0.15200
C1822       C  0.67439454  0.60768466  0.79053137    -0.30300
H1823       H  0.69452602  0.61150564  0.72896154     0.13900
H1824       H  0.68164664  0.61937727  0.82153309     0.14400
C1825       C  0.91641644  0.63110683  0.04110068    -0.15200
C1826       C  0.93232773  0.61796195  0.01062925    -0.30300
H1827       H  0.91238890  0.61758467  0.07177566     0.13900
H1828       H  0.90066673  0.60036243  0.48711026     0.14400
C1829       C  0.92484583  0.86248159  0.51019728    -0.15200
C1830       C  0.94693539  0.88748253  0.54045332    -0.30300
H1831       H  0.93017796  0.88195972  0.98078322     0.13900
H1832       H  0.94860684  0.87456136  0.56989967     0.14400
C1833       C  0.67583652  0.59922970  0.54520449    -0.15200
C1834       C  0.70533502  0.60521141  0.51711892    -0.30300
H1835       H  0.68340084  0.61501640  0.57442601     0.13900
H1836       H  0.69936545  0.58862907  0.99301497     0.14400
C1837       C  0.88730607  0.71779271  0.91888586    -0.12100
C1838       C  0.85456831  0.71659936  0.94111407     0.10100
C1839       C  0.82266915  0.71904052  0.92177437    -0.12100
C1840       C  0.81840535  0.71234744  0.88070181    -0.12100
C1841       C  0.84731683  0.70543447  0.85932964     0.10100
C1842       C  0.88378750  0.71250430  0.87772136    -0.12100
H1843       H  0.91550836  0.72330296  0.93280476     0.14100
H1844       H  0.80009873  0.72399983  0.93885177     0.14100
H1845       H  0.79371069  0.71417778  0.86580979     0.14100
H1846       H  0.91009599  0.71526496  0.86018734     0.14100
C1847       C  0.84240356  0.74429232  0.63116890    -0.12100
C1848       C  0.84119280  0.71135951  0.60931426     0.10100
C1849       C  0.83518741  0.67540595  0.62941503    -0.12100
C1850       C  0.84339213  0.67743269  0.66993996    -0.12100
C1851       C  0.85533075  0.71476762  0.69042874     0.10100
C1852       C  0.84983812  0.74615182  0.67215335    -0.12100
H1853       H  0.83796096  0.76832471  0.61707837     0.14100
H1854       H  0.82767904  0.64708912  0.61308647     0.14100
H1855       H  0.83836088  0.64924217  0.68529996     0.14100
H1856       H  0.84938766  0.77090063  0.68951067     0.14100
loop_ 
_geom_bond_atom_site_label_1 
_geom_bond_atom_site_label_2 
_geom_bond_distance 
_geom_bond_site_symmetry_2 
_ccdc_geom_bond_type 
C1            C3   1.527       .  S
C1            C5   1.553       .  S
C1            C4   1.537       .  S
C1          C224   1.443       .  S
C2            C6   1.523       .  S
C2            C8   1.539       .  S
C2            C7   1.526       .  S
C2          C214   1.433       .  S
C3           C11   1.383       .  A
C3          C238   1.355   1_554  A
C4           C15   1.390       .  A
C4          C239   1.377   1_554  A
C5           C19   1.384       .  A
C5          C240   1.391       .  A
C6            C9   1.379       .  A
C6          C235   1.357       .  A
C7           C13   1.375       .  A
C7          C236   1.382       .  A
C8           C16   1.387       .  A
C8          C237   1.378       .  A
C9           N10   1.352       .  A
C9           H22   1.082       .  S
N10         C243   1.359       .  A
N10         C442   1.436       .  S
C11         N242   1.361       .  A
C11          H12   1.081       .  S
C13         N246   1.344       .  A
C13          H23   1.083       .  S
N14          C15   1.354       .  A
N14         C245   1.345   1_554  A
N14         C205   1.433       .  S
C15          H21   1.081       .  S
C16          N17   1.360       .  A
C16          H18   1.080       .  S
N17         C251   1.354       .  A
N17         C201   1.448       .  S
C19         N249   1.350       .  A
C19          H20   1.081       .  S
C24          C26   1.524       .  S
C24          C28   1.523       .  S
C24          C27   1.522       .  S
C24         C217   1.431       .  S
C25          C29   1.536       .  S
C25          C31   1.546       .  S
C25          C30   1.541       .  S
C25         C227   1.438       .  S
C26          C34   1.382       .  A
C26          C29   1.368       .  A
C27          C38   1.374       .  A
C27          C30   1.367       .  A
C28          C42   1.367       .  A
C28          C31   1.373       .  A
C29          C32   1.377       .  A
C30          C36   1.388       .  A
C31          C39   1.392       .  A
C32          N33   1.354       .  A
C32          H45   1.083       .  S
N33          C34   1.358       .  A
N33         C197   1.437       .  S
C34          H35   1.082       .  S
C36          N37   1.362       .  A
C36          H46   1.081       .  S
N37          C38   1.351       .  A
N37         C193   1.439       .  S
C38          H44   1.083       .  S
C39          N40   1.361       .  A
C39          H41   1.082       .  S
N40          C42   1.347       .  A
N40         C189   1.432       .  S
C42          H43   1.083       .  S
C47          O49   1.254       .  A
C47         O294   1.263       .  A
C47         C209   1.474       .  S
Tb48         O59   2.576       .  S
Tb48         O69   2.372   1_545  S
Tb48        O766   2.374   1_554  S
Tb48        O535   2.330   1_545  S
Tb48        O518   2.355   1_545  S
Tb48        O296   2.574   1_554  S
Tb48        O284   2.352       .  S
Tb48       O1000   2.334       .  S
O49         Tb53   2.347       .  S
O50          C61   1.262       .  A
O50        Tb517   2.370       .  S
C51          O56   1.258       .  A
C51          O72   1.252   1_554  A
C51         C178   1.471       .  S
O52          C68   1.266       .  A
O52        Tb280   2.388       .  S
Tb53         O56   2.338       .  S
Tb53         O65   2.523       .  S
Tb53        O514   2.337   1_545  S
Tb53        O289   2.628   1_554  S
Tb53        O294   2.379       .  S
Tb53        O527   2.380   1_544  S
Tb53       O1447   2.329   1_545  S
O54         C524   1.263   1_556  A
O54        Tb512   2.360   1_556  S
O55          C58   1.257       .  A
O55       Tb1445   2.327       .  S
O57          C67   1.319       .  A
O57        Tb285   2.602       .  S
C58          O71   1.256       .  A
C58         C206   1.470       .  S
O59         C994   1.315       .  A
C60          O69   1.258       .  A
C60         O518   1.258       .  A
C60         C645   1.475       .  S
C61          O63   1.256   1_554  A
C61         C186   1.474       .  S
O62         C279   1.263       .  A
O62        Tb285   2.366       .  S
O63        Tb517   2.358   1_556  S
O64         C995   1.312       .  A
O64        Tb280   2.550       .  S
O65          C66   1.303       .  A
C66         O987   1.323   1_455  A
C66          C93   1.689       .  S
C67         O992   1.312   1_455  A
C67          C92   1.697       .  S
C68         O534   1.258       .  A
C68         C202   1.481       .  S
O70         C532   1.262       .  A
O70        Tb744   2.364       .  S
O71        Tb512   2.338       .  S
O72        Tb976   2.333   1_456  S
C73          O88   1.260       .  A
C73          O75   1.262       .  A
C73         C198   1.472       .  S
Tb74         O90   2.600       .  S
Tb74         O85   2.516       .  S
Tb74         O78   2.328       .  S
Tb74         O95   2.358   1_545  S
Tb74        O560   2.375       .  S
Tb74        O561   2.347   1_545  S
Tb74        O544   2.359   1_545  S
Tb74       O1026   2.350       .  S
O75         Tb79   2.368       .  S
O76          C87   1.264       .  A
O76        Tb543   2.364       .  S
C77          O82   1.252       .  A
C77          O98   1.259       .  A
C77         C165   1.467       .  S
O78          C94   1.259       .  A
Tb79         O83   2.548       .  S
Tb79         O88   2.335       .  S
Tb79         O82   2.314       .  S
Tb79         O91   2.633       .  S
Tb79        O540   2.379   1_545  S
Tb79        O553   2.352   1_545  S
Tb79       O1473   2.316   1_545  S
O80         C550   1.262       .  A
O80        Tb538   2.380       .  S
O81          C84   1.251       .  A
O81       Tb1471   2.326       .  S
O83          C93   1.310       .  A
C84          O97   1.260       .  A
C84         C194   1.473       .  S
O85        C1020   1.300       .  A
C86          O95   1.258       .  A
C86         O544   1.262       .  A
C86         C633   1.473       .  S
C87          O89   1.258       .  A
C87         C173   1.471       .  S
O89        Tb543   2.347       .  S
O90        C1021   1.320       .  A
O91          C92   1.327       .  A
C92        O1013   1.301   1_455  A
C93        O1018   1.317   1_455  A
C94         O560   1.262       .  A
C94         C190   1.474       .  S
O96         C558   1.262       .  A
O96        Tb538   2.373       .  S
O97        Tb538   2.353       .  S
O98       Tb1002   2.356   1_455  S
C99         C101   1.538       .  S
C99         C103   1.538       .  S
C99         C102   1.522       .  S
C99         C378   1.431   1_554  S
C100        C104   1.531       .  S
C100        C106   1.539       .  S
C100        C105   1.518       .  S
C100        C156   1.430       .  S
C101        C109   1.382       .  A
C101        C104   1.368       .  A
C102        C113   1.382       .  A
C102        C105   1.354       .  A
C103        C117   1.383       .  A
C103        C106   1.392       .  A
C104        C107   1.379       .  A
C105        C111   1.377       .  A
C106        C114   1.383       .  A
C107        N108   1.354       .  A
C107        H120   1.082       .  S
N108        C109   1.361       .  A
N108        C185   1.442       .  S
C109        H342   1.081   1_554  S
H110        C341   1.081       .  S
C111        N112   1.353       .  A
C111        H121   1.083       .  S
N112        C113   1.359       .  A
N112        C177   1.435       .  S
C113        H351   1.082   1_554  S
C114        N115   1.351       .  A
C114        H116   1.083       .  S
N115        C117   1.351       .  A
N115        C182   1.438       .  S
C117        H350   1.082   1_554  S
H118        C349   1.082       .  S
H119        C345   1.082       .  S
C122        C124   1.539       .  S
C122        C126   1.538       .  S
C122        C125   1.517       .  S
C122        C159   1.432       .  S
C123        C127   1.538       .  S
C123        C129   1.539       .  S
C123        C128   1.525       .  S
C123        C149   1.430       .  S
C124        C132   1.386       .  A
C124        C127   1.381       .  A
C125        C136   1.374       .  A
C125        C128   1.357       .  A
C126        C140   1.381       .  A
C126        C129   1.369       .  A
C127        C130   1.379       .  A
C128        C134   1.384       .  A
C129        C137   1.386       .  A
C130        N131   1.349       .  A
C130        H143   1.083       .  S
N131        C132   1.358       .  A
N131        C174   1.438       .  S
C132        H133   1.081       .  S
C134        N135   1.357       .  A
C134        H144   1.082       .  S
N135        C136   1.358       .  A
N135        C166   1.441       .  S
C136        H142   1.082       .  S
C137        N138   1.363       .  A
C137        H139   1.080       .  S
N138        C140   1.355       .  A
N138        C170   1.446       .  S
C140        H141   1.082       .  S
C145        C146   1.393       .  A
C145        C150   1.351       .  A
C145        H151   1.084       .  S
C146        C331   1.431       .  S
C146        C147   1.394       .  A
C147        C148   1.362       .  A
C147        H152   1.081       .  S
C148        C149   1.397       .  A
C148        H153   1.081       .  S
C149        C150   1.396       .  A
C150        H154   1.083       .  S
C155        C156   1.395       .  A
C155        C160   1.357       .  A
C155        H161   1.083       .  S
C156        C157   1.402       .  A
C157        C158   1.360       .  A
C157        H162   1.082       .  S
C158        C159   1.388       .  A
C158        H163   1.081       .  S
C159        C160   1.396       .  A
C160        H164   1.084       .  S
C165        C166   1.341       .  D
C165        H167   1.085       .  S
C166        H168   1.087       .  S
C169        C550   1.478       .  S
C169        C170   1.344       .  D
C169        H635   1.084       .  S
C170        H172   1.087       .  S
H171        C633   1.085       .  S
C173        C174   1.340       .  D
C173        H175   1.085       .  S
C174        H176   1.087       .  S
C177        C178   1.341       .  D
C177        H179   1.087       .  S
C178        H180   1.086   1_554  S
C181        C524   1.472       .  S
C181        C182   1.346       .  D
C181        H647   1.085   1_554  S
C182        H184   1.087       .  S
H183        C645   1.086       .  S
C185        C186   1.342       .  D
C185        H187   1.087       .  S
C186        H188   1.084   1_554  S
C189        C190   1.341       .  D
C189        H191   1.088       .  S
C190        H192   1.085       .  S
C193        C194   1.339       .  D
C193        H195   1.088       .  S
C194        H196   1.085       .  S
C197        C198   1.344       .  D
C197        H199   1.087       .  S
C198        H200   1.085       .  S
C201        C202   1.345       .  D
C201        H203   1.087       .  S
C202        H436   1.085       .  S
H204        C434   1.086   1_556  S
C205        C206   1.341       .  D
C205        H439   1.087   1_554  S
C206        H208   1.086       .  S
H207        C437   1.087       .  S
C209        C210   1.340       .  D
C209        H211   1.084       .  S
C210        N242   1.443       .  S
C210        H444   1.087   1_554  S
H212        C442   1.087       .  S
C213        C214   1.386       .  A
C213        C218   1.358       .  A
C213        H219   1.079       .  S
C214        C215   1.400       .  A
C215        C216   1.354       .  A
C215        H220   1.084       .  S
C216        C217   1.392       .  A
C216        H221   1.082       .  S
C217        C218   1.403       .  A
C218        H222   1.082       .  S
C223        C224   1.390       .  A
C223        C228   1.361       .  A
C223        H229   1.080       .  S
C224        C225   1.394       .  A
C225        C226   1.359       .  A
C225        H230   1.084       .  S
C226        C227   1.397       .  A
C226        H231   1.080       .  S
C227        C228   1.401       .  A
C228        H232   1.080       .  S
C233        C235   1.526       .  S
C233        C237   1.551       .  S
C233        C236   1.536       .  S
C233        C456   1.440       .  S
C234        C238   1.528       .  S
C234        C240   1.538   1_556  S
C234        C239   1.524       .  S
C234        C446   1.435       .  S
C235        C243   1.378       .  A
C236        C247   1.388       .  A
C237        C251   1.388       .  A
C238        C241   1.381       .  A
C239        C245   1.376       .  A
C240        C248   1.390   1_554  A
C241        N242   1.353   1_556  A
C241        H254   1.082       .  S
C243        H244   1.082       .  S
C245        H255   1.083       .  S
N246        C247   1.356       .  A
N246        C437   1.434       .  S
C247        H253   1.081       .  S
C248        N249   1.353   1_556  A
C248        H250   1.081       .  S
N249        C433   1.439       .  S
C251        H252   1.082       .  S
C256        C258   1.525       .  S
C256        C260   1.518       .  S
C256        C259   1.528       .  S
C256        C449   1.432       .  S
C257        C261   1.539       .  S
C257        C263   1.550       .  S
C257        C262   1.535       .  S
C257        C459   1.441       .  S
C258        C266   1.385       .  A
C258        C261   1.380       .  A
C259        C270   1.377       .  A
C259        C262   1.369       .  A
C260        C274   1.366       .  A
C260        C263   1.368       .  A
C261        C264   1.376       .  A
C262        C268   1.388       .  A
C263        C271   1.395       .  A
C264        N265   1.346       .  A
C264        H277   1.083       .  S
N265        C266   1.354       .  A
N265        C429   1.431       .  S
C266        H267   1.082       .  S
C268        N269   1.361       .  A
C268        H278   1.080       .  S
N269        C270   1.349       .  A
N269        C425   1.440       .  S
C270        H276   1.083       .  S
C271        N272   1.362       .  A
C271        H273   1.082       .  S
N272        C274   1.347       .  A
N272        C421   1.433       .  S
C274        H275   1.083       .  S
C279        O281   1.255       .  A
C279        C441   1.464       .  S
Tb280       O534   2.346       .  S
Tb280       O767   2.324   1_545  S
Tb280       O750   2.358   1_545  S
Tb280       O291   2.628       .  S
Tb280      O1232   2.334       .  S
Tb280       O301   2.377   1_545  S
O281       Tb285   2.339       .  S
O282        C293   1.257       .  A
O282       Tb749   2.340       .  S
C283        O288   1.256       .  A
C283        O304   1.254       .  A
C283        C410   1.473       .  S
O284        C300   1.259       .  A
Tb285       O746   2.332   1_545  S
Tb285       O288   2.336       .  S
Tb285       O759   2.367   1_545  S
Tb285       O297   2.505       .  S
Tb285      O1679   2.341   1_445  S
O286        C756   1.262       .  A
O286       Tb744   2.355       .  S
O287        C290   1.260       .  A
O287      Tb1677   2.345       .  S
O289        C299   1.326       .  A
C290        O303   1.252       .  A
C290        C438   1.467       .  S
O291       C1226   1.326       .  A
C292        O750   1.261       .  A
C292        O301   1.261       .  A
C292        C877   1.485       .  S
C293        O295   1.263       .  A
C293        C418   1.481       .  S
O295       Tb749   2.385       .  S
O296       C1227   1.315       .  A
O297        C298   1.299       .  A
C298       O1219   1.324   1_455  A
C298        C325   1.685       .  S
C299       O1224   1.304   1_455  A
C299        C324   1.691       .  S
C300        O766   1.260   1_554  A
C300        C434   1.476       .  S
O302        C764   1.260   1_556  A
O302       Tb512   2.366   1_556  S
O303       Tb744   2.321       .  S
O304      Tb1208   2.341   1_455  S
C305        O320   1.261       .  A
C305        O307   1.262       .  A
C305        C430   1.468       .  S
Tb306       O792   2.377       .  S
Tb306       O793   2.353   1_545  S
Tb306       O776   2.364   1_545  S
Tb306       O322   2.595       .  S
Tb306       O317   2.535       .  S
Tb306       O310   2.334       .  S
Tb306      O1258   2.347       .  S
Tb306       O327   2.361   1_545  S
O307       Tb311   2.363       .  S
O308        C319   1.264       .  A
O308       Tb775   2.360       .  S
C309        O314   1.255       .  A
C309        O330   1.260       .  A
C309        C397   1.469       .  S
O310        C326   1.261       .  A
Tb311       O772   2.363   1_545  S
Tb311       O315   2.530       .  S
Tb311       O320   2.330       .  S
Tb311       O314   2.323       .  S
Tb311       O785   2.343   1_545  S
Tb311       O323   2.602       .  S
Tb311      O1705   2.325   1_545  S
O312        C782   1.262       .  A
O312       Tb770   2.376       .  S
O313        C316   1.252       .  A
O313      Tb1703   2.322       .  S
O315        C325   1.307       .  A
C316        O329   1.262       .  A
C316        C426   1.471       .  S
O317       C1252   1.306       .  A
C318        O776   1.262       .  A
C318        O327   1.259       .  A
C318        C865   1.476       .  S
C319        O321   1.258       .  A
C319        C405   1.468       .  S
O321       Tb775   2.345       .  S
O322       C1253   1.317       .  A
O323        C324   1.318       .  A
C324       O1245   1.307   1_455  A
C325       O1250   1.320   1_455  A
C326        O792   1.262       .  A
C326        C422   1.478       .  S
O328        C790   1.261       .  A
O328       Tb770   2.372       .  S
O329       Tb770   2.356       .  S
O330      Tb1234   2.355   1_455  S
C331        C333   1.542       .  S
C331        C335   1.539       .  S
C331        C334   1.522       .  S
C332        C336   1.531       .  S
C332        C338   1.538       .  S
C332        C337   1.518       .  S
C332        C388   1.432       .  S
C333        C341   1.388       .  A
C333        C336   1.368       .  A
C334        C345   1.381       .  A
C334        C337   1.354       .  A
C335        C349   1.383       .  A
C335        C338   1.392       .  A
C336        C339   1.376       .  A
C337        C343   1.377       .  A
C338        C346   1.385       .  A
C339        N340   1.354       .  A
C339        H352   1.083       .  S
N340        C341   1.361       .  A
N340        C417   1.440       .  S
C343        N344   1.354       .  A
C343        H353   1.083       .  S
N344        C345   1.359       .  A
N344        C409   1.436       .  S
C346        N347   1.351       .  A
C346        H348   1.083       .  S
N347        C349   1.351       .  A
N347        C414   1.438       .  S
C354        C356   1.539       .  S
C354        C358   1.536       .  S
C354        C357   1.518       .  S
C354        C391   1.434       .  S
C355        C359   1.538       .  S
C355        C361   1.540       .  S
C355        C360   1.524       .  S
C355        C381   1.432       .  S
C356        C364   1.387       .  A
C356        C359   1.386       .  A
C357        C368   1.374       .  A
C357        C360   1.360       .  A
C358        C372   1.381       .  A
C358        C361   1.368       .  A
C359        C362   1.379       .  A
C360        C366   1.386       .  A
C361        C369   1.386       .  A
C362        N363   1.347       .  A
C362        H375   1.083       .  S
N363        C364   1.357       .  A
N363        C406   1.437       .  S
C364        H365   1.081       .  S
C366        N367   1.357       .  A
C366        H376   1.083       .  S
N367        C368   1.356       .  A
N367        C398   1.442       .  S
C368        H374   1.082       .  S
C369        N370   1.362       .  A
C369        H371   1.080       .  S
N370        C372   1.355       .  A
N370        C402   1.445       .  S
C372        H373   1.082       .  S
C377        C378   1.395       .  A
C377        C382   1.352       .  A
C377        H383   1.084       .  S
C378        C379   1.393       .  A
C379        C380   1.361       .  A
C379        H384   1.081       .  S
C380        C381   1.396       .  A
C380        H385   1.082       .  S
C381        C382   1.395       .  A
C382        H386   1.082       .  S
C387        C388   1.393       .  A
C387        C392   1.356       .  A
C387        H393   1.083       .  S
C388        C389   1.401       .  A
C389        C390   1.362       .  A
C389        H394   1.082       .  S
C390        C391   1.389       .  A
C390        H395   1.081       .  S
C391        C392   1.398       .  A
C392        H396   1.084       .  S
C397        C398   1.344       .  D
C397        H399   1.084       .  S
C398        H400   1.087       .  S
C401        C782   1.478       .  S
C401        C402   1.344       .  D
C401        H867   1.084       .  S
C402        H404   1.087       .  S
H403        C865   1.084       .  S
C405        C406   1.338       .  D
C405        H407   1.085       .  S
C406        H408   1.087       .  S
C409        C410   1.342       .  D
C409        H411   1.087       .  S
C410        H412   1.086       .  S
C413        C756   1.470       .  S
C413        C414   1.345       .  D
C413        H879   1.086       .  S
C414        H416   1.087       .  S
H415        C877   1.085       .  S
C417        C418   1.348       .  D
C417        H419   1.088       .  S
C418        H420   1.085       .  S
C421        C422   1.342       .  D
C421        H423   1.088       .  S
C422        H424   1.085       .  S
C425        C426   1.338       .  D
C425        H427   1.088       .  S
C426        H428   1.085       .  S
C429        C430   1.340       .  D
C429        H431   1.088       .  S
C430        H432   1.085       .  S
C433        C434   1.345       .  D
C433        H435   1.088       .  S
C437        C438   1.338       .  D
C438        H440   1.086       .  S
C441        C442   1.337       .  D
C441        H443   1.085       .  S
C445        C446   1.383       .  A
C445        C450   1.359       .  A
C445        H451   1.079       .  S
C446        C447   1.400       .  A
C447        C448   1.353       .  A
C447        H452   1.085       .  S
C448        C449   1.391       .  A
C448        H453   1.082       .  S
C449        C450   1.407       .  A
C450        H454   1.083       .  S
C455        C456   1.388       .  A
C455        C460   1.365       .  A
C455        H461   1.080       .  S
C456        C457   1.394       .  A
C457        C458   1.355       .  A
C457        H462   1.084       .  S
C458        C459   1.397       .  A
C458        H463   1.079       .  S
C459        C460   1.404       .  A
C460        H464   1.080       .  S
C465        C467   1.527       .  S
C465        C469   1.555       .  S
C465        C468   1.541       .  S
C465        C688   1.441       .  S
C466        C470   1.521       .  S
C466        C472   1.538       .  S
C466        C471   1.518       .  S
C466        C678   1.437       .  S
C467        C475   1.383       .  A
C467        C702   1.360       .  A
C468        C479   1.389       .  A
C468        C703   1.372       .  A
C469        C483   1.390       .  A
C469        C704   1.380       .  A
C470        C699   1.360       .  A
C470        C473   1.376       .  A
C471        C700   1.372       .  A
C471        C477   1.371       .  A
C472        C701   1.390       .  A
C472        C480   1.387       .  A
C473        N474   1.350       .  A
C473        H486   1.082       .  S
N474        C707   1.361       .  A
N474        C906   1.436       .  S
C475        N706   1.359       .  A
C475        H476   1.082       .  S
C477        N710   1.345       .  A
C477        H487   1.083       .  S
N478        C709   1.349   1_554  A
N478        C479   1.359       .  A
N478        C669   1.436       .  S
C479        H485   1.080       .  S
C480        N481   1.354       .  A
C480        H482   1.081       .  S
N481        C715   1.351       .  A
N481        C665   1.442       .  S
C483        N713   1.355       .  A
C483        H484   1.081       .  S
C488        C490   1.525       .  S
C488        C492   1.522       .  S
C488        C491   1.523       .  S
C488        C681   1.433       .  S
C489        C493   1.541       .  S
C489        C495   1.543       .  S
C489        C494   1.535       .  S
C489        C691   1.438       .  S
C490        C498   1.385       .  A
C490        C493   1.374       .  A
C491        C502   1.371       .  A
C491        C494   1.366       .  A
C492        C506   1.366       .  A
C492        C495   1.371       .  A
C493        C496   1.378       .  A
C494        C500   1.386       .  A
C495        C503   1.389       .  A
C496        N497   1.349       .  A
C496        H509   1.082       .  S
N497        C498   1.356       .  A
N497        C661   1.435       .  S
C498        H499   1.082       .  S
C500        N501   1.361       .  A
C500        H510   1.081       .  S
N501        C502   1.349       .  A
N501        C657   1.434       .  S
C502        H508   1.083       .  S
C503        N504   1.361       .  A
C503        H505   1.082       .  S
N504        C506   1.349       .  A
N504        C653   1.432       .  S
C506        H507   1.083       .  S
C511        O758   1.260       .  A
C511        O513   1.264       .  A
C511        C673   1.472       .  S
Tb512       O760   2.621   1_554  S
Tb512       O523   2.545       .  S
Tb512       O748   2.372       .  S
Tb512      O1464   2.335       .  S
Tb512       O533   2.350       .  S
O513       Tb517   2.366       .  S
O514        C525   1.256       .  A
C515        O520   1.257   1_554  A
C515        O536   1.259       .  A
C515        C642   1.473       .  S
O516        C532   1.261       .  A
O516       Tb744   2.359       .  S
Tb517       O753   2.526   1_554  S
Tb517       O758   2.333       .  S
Tb517       O520   2.339   1_554  S
Tb517       O529   2.608       .  S
Tb517       O983   2.331   1_455  S
O519        C522   1.255       .  A
O519       Tb981   2.332   1_565  S
O521        C531   1.324       .  A
O521       Tb749   2.619       .  S
C522        O535   1.259       .  A
C522        C670   1.470       .  S
O523       C1458   1.308       .  A
C524        O533   1.261       .  A
C525        O527   1.263   1_554  A
C525        C650   1.476       .  S
O526        C743   1.264       .  A
O526       Tb749   2.370       .  S
O528       C1459   1.326       .  A
O528       Tb744   2.624       .  S
O529        C530   1.324       .  A
C530       O1451   1.308   1_455  A
C530        C557   1.690       .  S
C531       O1456   1.309   1_455  A
C531        C556   1.696       .  S
C532        C666   1.477       .  S
O536      Tb1440   2.335   1_455  S
C537        O552   1.261       .  A
C537        O539   1.261       .  A
C537        C662   1.472       .  S
Tb538       O554   2.610       .  S
Tb538       O549   2.521       .  S
Tb538       O542   2.320       .  S
Tb538      O1490   2.360       .  S
Tb538       O559   2.356       .  S
O539       Tb543   2.364       .  S
O540        C551   1.264       .  A
C541        O546   1.253       .  A
C541        O562   1.260       .  A
C541        C629   1.467       .  S
O542        C558   1.259       .  A
Tb543       O547   2.547       .  S
Tb543       O552   2.339       .  S
Tb543       O546   2.320       .  S
Tb543       O555   2.624       .  S
Tb543      O1009   2.322       .  S
O545        C548   1.251       .  A
O545      Tb1007   2.321   1_565  S
O547        C557   1.309       .  A
C548        O561   1.261       .  A
C548        C658   1.469       .  S
O549       C1484   1.299       .  A
C550        O559   1.256       .  A
C551        O553   1.256       .  A
C551        C637   1.477       .  S
O554       C1485   1.323       .  A
O555        C556   1.323       .  A
C556       O1477   1.302   1_455  A
C557       O1482   1.322   1_455  A
C558        C654   1.472       .  S
O562      Tb1466   2.350   1_455  S
C563        C565   1.532       .  S
C563        C567   1.534       .  S
C563        C566   1.516       .  S
C563        C842   1.423   1_554  S
C564        C568   1.536       .  S
C564        C570   1.542       .  S
C564        C569   1.523       .  S
C564        C620   1.426       .  S
C565        C573   1.380       .  A
C565        C568   1.370       .  A
C566        C577   1.378       .  A
C566        C569   1.353       .  A
C567        C581   1.379       .  A
C567        C570   1.385       .  A
C568        C571   1.379       .  A
C569        C575   1.380       .  A
C570        C578   1.388       .  A
C571        N572   1.357       .  A
C571        H584   1.083       .  S
N572        C573   1.357       .  A
N572        C649   1.438       .  S
C573        H806   1.081   1_554  S
H574        C805   1.082       .  S
C575        N576   1.356       .  A
C575        H585   1.083       .  S
N576        C577   1.358       .  A
N576        C641   1.439       .  S
C577        H815   1.082   1_554  S
C578        N579   1.355       .  A
C578        H580   1.082       .  S
N579        C581   1.348       .  A
N579        C646   1.437       .  S
C581        H814   1.083   1_554  S
H582        C813   1.083       .  S
H583        C809   1.082       .  S
C586        C588   1.543       .  S
C586        C590   1.541       .  S
C586        C589   1.512       .  S
C586        C623   1.432       .  S
C587        C591   1.533       .  S
C587        C593   1.538       .  S
C587        C592   1.524       .  S
C587        C613   1.427       .  S
C588        C596   1.388       .  A
C588        C591   1.370       .  A
C589        C600   1.375       .  A
C589        C592   1.352       .  A
C590        C604   1.379       .  A
C590        C593   1.388       .  A
C591        C594   1.377       .  A
C592        C598   1.381       .  A
C593        C601   1.390       .  A
C594        N595   1.352       .  A
C594        H607   1.082       .  S
N595        C596   1.363       .  A
N595        C638   1.442       .  S
C596        H597   1.081       .  S
C598        N599   1.355       .  A
C598        H608   1.083       .  S
N599        C600   1.359       .  A
N599        C630   1.439       .  S
C600        H606   1.081       .  S
C601        N602   1.356       .  A
C601        H603   1.082       .  S
N602        C604   1.346       .  A
N602        C634   1.438       .  S
C604        H605   1.082       .  S
C609        C610   1.388       .  A
C609        C614   1.353       .  A
C609        H615   1.082       .  S
C610        C795   1.427       .  S
C610        C611   1.400       .  A
C611        C612   1.358       .  A
C611        H616   1.084       .  S
C612        C613   1.390       .  A
C612        H617   1.081       .  S
C613        C614   1.401       .  A
C614        H618   1.084       .  S
C619        C620   1.395       .  A
C619        C624   1.355       .  A
C619        H625   1.083       .  S
C620        C621   1.398       .  A
C621        C622   1.361       .  A
C621        H626   1.082       .  S
C622        C623   1.392       .  A
C622        H627   1.083       .  S
C623        C624   1.395       .  A
C624        H628   1.082       .  S
C629        C630   1.341       .  D
C629        H631   1.084       .  S
C630        H632   1.087       .  S
C633        C634   1.339       .  D
C634        H636   1.088       .  S
C637        C638   1.340       .  D
C637        H639   1.085       .  S
C638        H640   1.087       .  S
C641        C642   1.344       .  D
C641        H643   1.087       .  S
C642        H644   1.085   1_554  S
C645        C646   1.343       .  D
C646        H648   1.087       .  S
C649        C650   1.349       .  D
C649        H651   1.087       .  S
C650        H652   1.085   1_554  S
C653        C654   1.342       .  D
C653        H655   1.088       .  S
C654        H656   1.085       .  S
C657        C658   1.337       .  D
C657        H659   1.088       .  S
C658        H660   1.085       .  S
C661        C662   1.342       .  D
C661        H663   1.088       .  S
C662        H664   1.085       .  S
C665        C666   1.346       .  D
C665        H667   1.087       .  S
C666        H900   1.085       .  S
H668        C898   1.085   1_556  S
C669        C670   1.340       .  D
C669        H903   1.087   1_554  S
C670        H672   1.085       .  S
H671        C901   1.088       .  S
C673        C674   1.343       .  D
C673        H675   1.085       .  S
C674        N706   1.435       .  S
C674        H908   1.088   1_554  S
H676        C906   1.088       .  S
C677        C678   1.385       .  A
C677        C682   1.358       .  A
C677        H683   1.080       .  S
C678        C679   1.399       .  A
C679        C680   1.355       .  A
C679        H684   1.085       .  S
C680        C681   1.393       .  A
C680        H685   1.082       .  S
C681        C682   1.405       .  A
C682        H686   1.082       .  S
C687        C688   1.386       .  A
C687        C692   1.363       .  A
C687        H693   1.079       .  S
C688        C689   1.390       .  A
C689        C690   1.358       .  A
C689        H694   1.084       .  S
C690        C691   1.401       .  A
C690        H695   1.080       .  S
C691        C692   1.404       .  A
C692        H696   1.080       .  S
C697        C699   1.528       .  S
C697        C701   1.554       .  S
C697        C700   1.538       .  S
C697        C920   1.447       .  S
C698        C702   1.526   1_556  S
C698        C704   1.538   1_556  S
C698        C703   1.520   1_556  S
C698        C910   1.436       .  S
C699        C707   1.380       .  A
C700        C711   1.389       .  A
C701        C715   1.388       .  A
C702        C705   1.375   1_554  A
C703        C709   1.373   1_554  A
C704        C712   1.387   1_554  A
C705        N706   1.352   1_556  A
C705        H718   1.083       .  S
C707        H708   1.082       .  S
C709        H719   1.083       .  S
N710        C711   1.357       .  A
N710        C901   1.431       .  S
C711        H717   1.080       .  S
C712        N713   1.356   1_556  A
C712        H714   1.081       .  S
N713        C897   1.447       .  S
C715        H716   1.081       .  S
C720        C722   1.525       .  S
C720        C724   1.521       .  S
C720        C723   1.525       .  S
C720        C913   1.435       .  S
C721        C725   1.534       .  S
C721        C727   1.544       .  S
C721        C726   1.538       .  S
C721        C923   1.441       .  S
C722        C730   1.383       .  A
C722        C725   1.368       .  A
C723        C734   1.373       .  A
C723        C726   1.368       .  A
C724        C738   1.364       .  A
C724        C727   1.373       .  A
C725        C728   1.373       .  A
C726        C732   1.387       .  A
C727        C735   1.390       .  A
C728        N729   1.351       .  A
C728        H741   1.083       .  S
N729        C730   1.360       .  A
N729        C893   1.434       .  S
C730        H731   1.082       .  S
C732        N733   1.362       .  A
C732        H742   1.081       .  S
N733        C734   1.349       .  A
N733        C889   1.437       .  S
C734        H740   1.083       .  S
C735        N736   1.362       .  A
C735        H737   1.082       .  S
N736        C738   1.347       .  A
N736        C885   1.431       .  S
C738        H739   1.083       .  S
C743        O745   1.254       .  A
C743        C905   1.465       .  S
Tb744       O755   2.546       .  S
Tb744      O1696   2.326       .  S
Tb744       O765   2.353       .  S
O745       Tb749   2.337       .  S
O746        C757   1.258       .  A
C747        O752   1.254       .  A
C747        O768   1.254       .  A
C747        C874   1.466       .  S
O748        C764   1.261       .  A
Tb749       O752   2.327       .  S
Tb749       O761   2.516       .  S
Tb749      O1215   2.318   1_455  S
O751        C754   1.254       .  A
O751      Tb1213   2.333   1_565  S
O753        C763   1.303       .  A
C754        O767   1.258       .  A
C754        C902   1.466       .  S
O755       C1690   1.309       .  A
C756        O765   1.261       .  A
C757        O759   1.262       .  A
C757        C882   1.469       .  S
O760       C1691   1.326       .  A
O761        C762   1.303       .  A
C762       O1683   1.320   1_455  A
C762        C789   1.678       .  S
C763       O1688   1.327   1_455  A
C763        C788   1.693       .  S
C764        C898   1.481       .  S
O768      Tb1672   2.336   1_455  S
C769        O784   1.261       .  A
C769        O771   1.260       .  A
C769        C894   1.469       .  S
Tb770       O786   2.594       .  S
Tb770       O781   2.518       .  S
Tb770       O774   2.324       .  S
Tb770      O1722   2.351       .  S
Tb770       O791   2.360       .  S
O771       Tb775   2.362       .  S
O772        C783   1.264       .  A
C773        O778   1.252       .  A
C773        O794   1.259       .  A
C773        C861   1.466       .  S
O774        C790   1.260       .  A
Tb775       O779   2.526       .  S
Tb775       O784   2.337       .  S
Tb775       O778   2.321       .  S
Tb775       O787   2.616       .  S
Tb775      O1241   2.326       .  S
O777        C780   1.250       .  A
O777      Tb1239   2.319   1_565  S
O779        C789   1.305       .  A
C780        O793   1.261       .  A
C780        C890   1.470       .  S
O781       C1716   1.300       .  A
C782        O791   1.256       .  A
C783        O785   1.258       .  A
C783        C869   1.469       .  S
O786       C1717   1.320       .  A
O787        C788   1.323       .  A
C788       O1709   1.299   1_455  A
C789       O1714   1.318   1_455  A
C790        C886   1.473       .  S
O794      Tb1698   2.348   1_455  S
C795        C797   1.537       .  S
C795        C799   1.531       .  S
C795        C798   1.515       .  S
C796        C800   1.536       .  S
C796        C802   1.543       .  S
C796        C801   1.520       .  S
C796        C852   1.426       .  S
C797        C805   1.386       .  A
C797        C800   1.388       .  A
C798        C809   1.375       .  A
C798        C801   1.353       .  A
C799        C813   1.373       .  A
C799        C802   1.369       .  A
C800        C803   1.379       .  A
C801        C807   1.379       .  A
C802        C810   1.392       .  A
C803        N804   1.346       .  A
C803        H816   1.083       .  S
N804        C805   1.351       .  A
N804        C881   1.432       .  S
C807        N808   1.355       .  A
C807        H817   1.083       .  S
N808        C809   1.357       .  A
N808        C873   1.435       .  S
C810        N811   1.365       .  A
C810        H812   1.082       .  S
N811        C813   1.352       .  A
N811        C878   1.442       .  S
C818        C820   1.539       .  S
C818        C822   1.536       .  S
C818        C821   1.516       .  S
C818        C855   1.428       .  S
C819        C823   1.534       .  S
C819        C825   1.538       .  S
C819        C824   1.521       .  S
C819        C845   1.423       .  S
C820        C828   1.381       .  A
C820        C823   1.374       .  A
C821        C832   1.374       .  A
C821        C824   1.355       .  A
C822        C836   1.382       .  A
C822        C825   1.373       .  A
C823        C826   1.379       .  A
C824        C830   1.380       .  A
C825        C833   1.388       .  A
C826        N827   1.354       .  A
C826        H839   1.082       .  S
N827        C828   1.360       .  A
N827        C870   1.438       .  S
C828        H829   1.081       .  S
C830        N831   1.356       .  A
C830        H840   1.083       .  S
N831        C832   1.359       .  A
N831        C862   1.438       .  S
C832        H838   1.082       .  S
C833        N834   1.356       .  A
C833        H835   1.081       .  S
N834        C836   1.350       .  A
N834        C866   1.441       .  S
C836        H837   1.082       .  S
C841        C842   1.395       .  A
C841        C846   1.355       .  A
C841        H847   1.083       .  S
C842        C843   1.394       .  A
C843        C844   1.352       .  A
C843        H848   1.082       .  S
C844        C845   1.395       .  A
C844        H849   1.082       .  S
C845        C846   1.394       .  A
C846        H850   1.083       .  S
C851        C852   1.392       .  A
C851        C856   1.353       .  A
C851        H857   1.084       .  S
C852        C853   1.400       .  A
C853        C854   1.358       .  A
C853        H858   1.081       .  S
C854        C855   1.391       .  A
C854        H859   1.083       .  S
C855        C856   1.396       .  A
C856        H860   1.082       .  S
C861        C862   1.341       .  D
C861        H863   1.084       .  S
C862        H864   1.087       .  S
C865        C866   1.342       .  D
C866        H868   1.087       .  S
C869        C870   1.339       .  D
C869        H871   1.085       .  S
C870        H872   1.087       .  S
C873        C874   1.343       .  D
C873        H875   1.087       .  S
C874        H876   1.085       .  S
C877        C878   1.345       .  D
C878        H880   1.088       .  S
C881        C882   1.343       .  D
C881        H883   1.087       .  S
C882        H884   1.085       .  S
C885        C886   1.340       .  D
C885        H887   1.088       .  S
C886        H888   1.085       .  S
C889        C890   1.337       .  D
C889        H891   1.088       .  S
C890        H892   1.085       .  S
C893        C894   1.340       .  D
C893        H895   1.088       .  S
C894        H896   1.085       .  S
C897        C898   1.348       .  D
C897        H899   1.087       .  S
C901        C902   1.338       .  D
C902        H904   1.085       .  S
C905        C906   1.335       .  D
C905        H907   1.085       .  S
C909        C910   1.385       .  A
C909        C914   1.358       .  A
C909        H915   1.080       .  S
C910        C911   1.396       .  A
C911        C912   1.357       .  A
C911        H916   1.084       .  S
C912        C913   1.395       .  A
C912        H917   1.082       .  S
C913        C914   1.406       .  A
C914        H918   1.082       .  S
C919        C920   1.388       .  A
C919        C924   1.363       .  A
C919        H925   1.079       .  S
C920        C921   1.393       .  A
C921        C922   1.361       .  A
C921        H926   1.084       .  S
C922        C923   1.400       .  A
C922        H927   1.080       .  S
C923        C924   1.403       .  A
C924        H928   1.080       .  S
C929        C931   1.527       .  S
C929        C933   1.552       .  S
C929        C932   1.533       .  S
C929       C1152   1.433       .  S
C930        C934   1.522       .  S
C930        C936   1.533       .  S
C930        C935   1.521       .  S
C930       C1142   1.424       .  S
C931        C939   1.384       .  A
C931       C1166   1.354       .  A
C932        C943   1.388       .  A
C932       C1167   1.380       .  A
C933        C947   1.387       .  A
C933       C1168   1.383       .  A
C934       C1163   1.358       .  A
C934        C937   1.376       .  A
C935       C1164   1.368       .  A
C935        C941   1.373       .  A
C936       C1165   1.377       .  A
C936        C944   1.382       .  A
C937        N938   1.350       .  A
C937        H950   1.083       .  S
N938       C1171   1.360       .  A
N938       C1370   1.434       .  S
C939       N1170   1.359       .  A
C939        H940   1.082       .  S
C941       N1174   1.347       .  A
C941        H951   1.083       .  S
N942       C1173   1.346   1_554  A
N942        C943   1.354       .  A
N942       C1133   1.435       .  S
C943        H949   1.081       .  S
C944        N945   1.359       .  A
C944        H946   1.081       .  S
N945       C1179   1.356       .  A
N945       C1129   1.445       .  S
C947       N1177   1.352       .  A
C947        H948   1.082       .  S
C952        C954   1.528       .  S
C952        C956   1.522       .  S
C952        C955   1.520       .  S
C952       C1145   1.423       .  S
C953        C957   1.536       .  S
C953        C959   1.545       .  S
C953        C958   1.534       .  S
C953       C1155   1.430       .  S
C954        C962   1.384       .  A
C954        C957   1.369       .  A
C955        C966   1.373       .  A
C955        C958   1.364       .  A
C956        C970   1.367       .  A
C956        C959   1.370       .  A
C957        C960   1.378       .  A
C958        C964   1.383       .  A
C959        C967   1.391       .  A
C960        N961   1.351       .  A
C960        H973   1.082       .  S
N961        C962   1.358       .  A
N961       C1125   1.437       .  S
C962        H963   1.082       .  S
C964        N965   1.361       .  A
C964        H974   1.081       .  S
N965        C966   1.351       .  A
N965       C1121   1.436       .  S
C966        H972   1.083       .  S
C967        N968   1.362       .  A
C967        H969   1.081       .  S
N968        C970   1.348       .  A
N968       C1117   1.433       .  S
C970        H971   1.083       .  S
C975       O1222   1.258       .  A
C975        O977   1.259       .  A
C975       C1137   1.472       .  S
Tb976      O1694   2.348       .  S
Tb976      O1463   2.338   1_545  S
Tb976      O1446   2.333   1_545  S
Tb976      O1224   2.521   1_554  S
Tb976       O987   2.615       .  S
Tb976      O1212   2.389       .  S
Tb976       O997   2.363   1_545  S
O977       Tb981   2.373       .  S
O978        C989   1.261       .  A
O978      Tb1445   2.362       .  S
C979        O984   1.261       .  A
C979       O1000   1.257       .  A
C979       C1106   1.476       .  S
O980        C996   1.265       .  A
O980      Tb1208   2.379       .  S
Tb981      O1442   2.348   1_545  S
Tb981      O1217   2.584   1_554  S
Tb981      O1222   2.346       .  S
Tb981       O984   2.345       .  S
Tb981      O1455   2.379   1_544  S
Tb981       O993   2.578       .  S
O982       C1452   1.263   1_556  A
O982      Tb1440   2.360   1_556  S
O983        C986   1.257       .  A
O985        C995   1.319       .  A
O985      Tb1213   2.598       .  S
C986        O999   1.256       .  A
C986       C1134   1.470       .  S
C988       O1446   1.260       .  A
C988        O997   1.262       .  A
C988       C1573   1.468       .  S
C989        O991   1.257   1_554  A
C989       C1114   1.464       .  S
O990       C1207   1.262       .  A
O990      Tb1213   2.360       .  S
O991      Tb1445   2.342   1_556  S
O992      Tb1208   2.555       .  S
O993        C994   1.316       .  A
C994       C1021   1.690       .  S
C995       C1020   1.692       .  S
C996       O1462   1.259       .  A
C996       C1130   1.477       .  S
O998       C1460   1.259       .  A
O998      Tb1672   2.351       .  S
O999      Tb1440   2.339       .  S
C1001      O1016   1.261       .  A
C1001      O1003   1.260       .  A
C1001      C1126   1.473       .  S
Tb1002     O1488   2.372       .  S
Tb1002     O1489   2.355   1_545  S
Tb1002     O1472   2.369   1_545  S
Tb1002     O1018   2.596       .  S
Tb1002     O1013   2.518       .  S
Tb1002     O1006   2.325       .  S
Tb1002     O1023   2.349   1_545  S
O1003     Tb1007   2.364       .  S
O1004      C1015   1.265       .  A
O1004     Tb1471   2.376       .  S
C1005      O1010   1.252       .  A
C1005      O1026   1.259       .  A
C1005      C1093   1.464       .  S
O1006      C1022   1.261       .  A
Tb1007     O1468   2.365   1_545  S
Tb1007     O1011   2.555       .  S
Tb1007     O1016   2.349       .  S
Tb1007     O1010   2.315       .  S
Tb1007     O1481   2.353   1_545  S
Tb1007     O1019   2.623       .  S
O1008      C1478   1.263       .  A
O1008     Tb1466   2.373       .  S
O1009      C1012   1.250   1_455  A
O1011      C1021   1.312       .  A
C1012      O1025   1.259       .  A
C1012      C1122   1.467       .  S
C1014      O1472   1.262       .  A
C1014      O1023   1.257       .  A
C1014      C1561   1.472       .  S
C1015      O1017   1.257       .  A
C1015      C1101   1.478       .  S
O1017     Tb1471   2.352       .  S
O1019      C1020   1.323       .  A
C1022      O1488   1.263       .  A
C1022      C1118   1.474       .  S
O1024      C1486   1.262       .  A
O1024     Tb1466   2.371       .  S
O1025     Tb1466   2.345       .  S
C1027      C1029   1.533   1_556  S
C1027      C1031   1.527   1_556  S
C1027      C1030   1.525   1_556  S
C1027      C1306   1.439       .  S
C1028      C1032   1.539       .  S
C1028      C1034   1.549       .  S
C1028      C1033   1.522       .  S
C1028      C1084   1.437       .  S
C1029      C1037   1.374       .  A
C1029      C1032   1.383       .  A
C1030      C1041   1.382   1_554  A
C1030      C1033   1.357       .  A
C1031      C1045   1.374       .  A
C1031      C1034   1.374       .  A
C1032      C1035   1.388       .  A
C1033      C1039   1.379       .  A
C1034      C1042   1.389       .  A
C1035      N1036   1.353       .  A
C1035      H1048   1.082       .  S
N1036      C1037   1.353       .  A
N1036      C1113   1.440       .  S
C1037      H1270   1.080   1_554  S
H1038      C1269   1.080       .  S
C1039      N1040   1.360       .  A
C1039      H1049   1.082       .  S
N1040      C1041   1.357   1_554  A
N1040      C1105   1.442       .  S
C1041      H1279   1.083       .  S
C1042      N1043   1.363       .  A
C1042      H1044   1.082       .  S
N1043      C1045   1.356       .  A
N1043      C1110   1.445       .  S
C1045      H1278   1.082   1_554  S
H1046      C1277   1.083       .  S
H1047      C1273   1.082       .  S
C1050      C1052   1.545       .  S
C1050      C1054   1.544       .  S
C1050      C1053   1.515       .  S
C1050      C1087   1.439       .  S
C1051      C1055   1.530       .  S
C1051      C1057   1.537       .  S
C1051      C1056   1.523       .  S
C1051      C1077   1.433       .  S
C1052      C1060   1.390       .  A
C1052      C1055   1.373       .  A
C1053      C1064   1.372       .  A
C1053      C1056   1.356       .  A
C1054      C1068   1.384       .  A
C1054      C1057   1.381       .  A
C1055      C1058   1.375       .  A
C1056      C1062   1.382       .  A
C1057      C1065   1.383       .  A
C1058      N1059   1.350       .  A
C1058      H1071   1.082       .  S
N1059      C1060   1.363       .  A
N1059      C1102   1.440       .  S
C1060      H1061   1.082       .  S
C1062      N1063   1.356       .  A
C1062      H1072   1.083       .  S
N1063      C1064   1.359       .  A
N1063      C1094   1.439       .  S
C1064      H1070   1.081       .  S
C1065      N1066   1.359       .  A
C1065      H1067   1.080       .  S
N1066      C1068   1.353       .  A
N1066      C1098   1.444       .  S
C1068      H1069   1.083       .  S
C1073      C1074   1.388       .  A
C1073      C1078   1.357       .  A
C1073      H1079   1.082       .  S
C1074      C1259   1.434       .  S
C1074      C1075   1.399       .  A
C1075      C1076   1.357       .  A
C1075      H1080   1.083       .  S
C1076      C1077   1.392       .  A
C1076      H1081   1.081       .  S
C1077      C1078   1.402       .  A
C1078      H1082   1.083       .  S
C1083      C1084   1.395       .  A
C1083      C1088   1.360       .  A
C1083      H1089   1.084       .  S
C1084      C1085   1.397       .  A
C1085      C1086   1.365       .  A
C1085      H1090   1.081       .  S
C1086      C1087   1.394       .  A
C1086      H1091   1.083       .  S
C1087      C1088   1.397       .  A
C1088      H1092   1.082       .  S
C1093      C1094   1.340       .  D
C1093      H1095   1.084       .  S
C1094      H1096   1.087       .  S
C1097      C1478   1.474       .  S
C1097      C1098   1.343       .  D
C1097      H1563   1.083       .  S
C1098      H1100   1.087       .  S
H1099      C1561   1.083       .  S
C1101      C1102   1.338       .  D
C1101      H1103   1.086       .  S
C1102      H1104   1.087       .  S
C1105      C1106   1.344       .  D
C1105      H1107   1.087   1_554  S
C1106      H1108   1.085       .  S
C1109      C1452   1.476       .  S
C1109      C1110   1.350       .  D
C1109      H1575   1.085   1_554  S
C1110      H1112   1.086       .  S
H1111      C1573   1.085       .  S
C1113      C1114   1.343       .  D
C1113      H1115   1.087       .  S
C1114      H1116   1.082   1_554  S
C1117      C1118   1.341       .  D
C1117      H1119   1.088       .  S
C1118      H1120   1.085       .  S
C1121      C1122   1.338       .  D
C1121      H1123   1.088       .  S
C1122      H1124   1.085       .  S
C1125      C1126   1.342       .  D
C1125      H1127   1.087       .  S
C1126      H1128   1.085       .  S
C1129      C1130   1.345       .  D
C1129      H1131   1.087       .  S
C1130      H1364   1.085       .  S
H1132      C1362   1.085   1_556  S
C1133      C1134   1.341       .  D
C1133      H1367   1.087   1_554  S
C1134      H1136   1.086       .  S
H1135      C1365   1.087       .  S
C1137      C1138   1.342       .  D
C1137      H1139   1.085       .  S
C1138      N1170   1.434       .  S
C1138      H1372   1.088   1_554  S
H1140      C1370   1.088       .  S
C1141      C1142   1.387       .  A
C1141      C1146   1.356       .  A
C1141      H1147   1.081       .  S
C1142      C1143   1.400       .  A
C1143      C1144   1.349       .  A
C1143      H1148   1.084       .  S
C1144      C1145   1.389       .  A
C1144      H1149   1.082       .  S
C1145      C1146   1.403       .  A
C1146      H1150   1.083       .  S
C1151      C1152   1.388       .  A
C1151      C1156   1.360       .  A
C1151      H1157   1.080       .  S
C1152      C1153   1.394       .  A
C1153      C1154   1.353       .  A
C1153      H1158   1.084       .  S
C1154      C1155   1.395       .  A
C1154      H1159   1.080       .  S
C1155      C1156   1.403       .  A
C1156      H1160   1.081       .  S
C1161      C1163   1.527       .  S
C1161      C1165   1.554       .  S
C1161      C1164   1.540       .  S
C1161      C1384   1.433       .  S
C1162      C1166   1.520   1_556  S
C1162      C1168   1.538   1_556  S
C1162      C1167   1.530   1_556  S
C1162      C1374   1.431       .  S
C1163      C1171   1.379       .  A
C1164      C1175   1.388       .  A
C1165      C1179   1.388       .  A
C1166      C1169   1.375   1_554  A
C1167      C1173   1.378   1_554  A
C1168      C1176   1.388       .  A
C1169      N1170   1.351   1_556  A
C1169      H1182   1.083       .  S
C1171      H1172   1.082       .  S
C1173      H1183   1.083       .  S
N1174      C1175   1.361       .  A
N1174      C1365   1.435       .  S
C1175      H1181   1.080       .  S
C1176      N1177   1.359       .  A
C1176      H1178   1.081   1_554  S
N1177      C1361   1.446       .  S
C1179      H1180   1.082       .  S
C1184      C1186   1.529       .  S
C1184      C1188   1.523       .  S
C1184      C1187   1.525       .  S
C1184      C1377   1.429       .  S
C1185      C1189   1.537       .  S
C1185      C1191   1.548       .  S
C1185      C1190   1.537       .  S
C1185      C1387   1.433       .  S
C1186      C1194   1.387       .  A
C1186      C1189   1.374       .  A
C1187      C1198   1.375       .  A
C1187      C1190   1.366       .  A
C1188      C1202   1.369       .  A
C1188      C1191   1.367       .  A
C1189      C1192   1.376       .  A
C1190      C1196   1.388       .  A
C1191      C1199   1.394       .  A
C1192      N1193   1.349       .  A
C1192      H1205   1.083       .  S
N1193      C1194   1.357       .  A
N1193      C1357   1.435       .  S
C1194      H1195   1.082       .  S
C1196      N1197   1.362       .  A
C1196      H1206   1.081       .  S
N1197      C1198   1.351       .  A
N1197      C1353   1.440       .  S
C1198      H1204   1.083       .  S
C1199      N1200   1.362       .  A
C1199      H1201   1.082       .  S
N1200      C1202   1.348       .  A
N1200      C1349   1.436       .  S
C1202      H1203   1.083       .  S
C1207      O1209   1.254       .  A
C1207      C1369   1.463       .  S
Tb1208     O1462   2.348       .  S
Tb1208     O1695   2.335   1_545  S
Tb1208     O1678   2.351   1_545  S
Tb1208     O1219   2.624       .  S
Tb1208     O1229   2.385   1_545  S
O1209     Tb1213   2.342       .  S
O1210      C1221   1.262       .  A
O1210     Tb1677   2.351       .  S
C1211      O1216   1.258       .  A
C1211      O1232   1.252       .  A
C1211      C1338   1.472       .  S
O1212      C1228   1.266       .  A
Tb1213     O1674   2.331   1_545  S
Tb1213     O1216   2.335       .  S
Tb1213     O1687   2.364   1_545  S
Tb1213     O1225   2.496       .  S
O1214      C1684   1.263       .  A
O1214     Tb1672   2.345       .  S
O1215      C1218   1.253       .  A
O1217      C1227   1.315       .  A
C1218      O1231   1.262       .  A
C1218      C1366   1.467       .  S
C1220      O1678   1.262       .  A
C1220      O1229   1.262       .  A
C1220      C1805   1.488       .  S
C1221      O1223   1.258       .  A
C1221      C1346   1.462       .  S
O1223     Tb1677   2.341       .  S
O1225      C1226   1.297       .  A
C1226      C1253   1.681       .  S
C1227      C1252   1.699       .  S
C1228      O1694   1.257       .  A
C1228      C1362   1.480       .  S
O1230      C1692   1.261   1_556  A
O1230     Tb1440   2.368   1_556  S
O1231     Tb1672   2.343       .  S
C1233      O1248   1.260       .  A
C1233      O1235   1.262       .  A
C1233      C1358   1.473       .  S
Tb1234     O1720   2.370       .  S
Tb1234     O1721   2.348   1_545  S
Tb1234     O1704   2.367   1_545  S
Tb1234     O1250   2.608       .  S
Tb1234     O1245   2.536       .  S
Tb1234     O1238   2.341       .  S
Tb1234     O1255   2.359   1_545  S
O1235     Tb1239   2.369       .  S
O1236      C1247   1.264       .  A
O1236     Tb1703   2.379       .  S
C1237      O1242   1.254       .  A
C1237      O1258   1.261       .  A
C1237      C1325   1.465       .  S
O1238      C1254   1.262       .  A
Tb1239     O1700   2.384   1_545  S
Tb1239     O1243   2.536       .  S
Tb1239     O1248   2.336       .  S
Tb1239     O1242   2.316       .  S
Tb1239     O1713   2.355   1_545  S
Tb1239     O1251   2.620       .  S
O1240      C1710   1.261       .  A
O1240     Tb1698   2.359       .  S
O1241      C1244   1.251   1_455  A
O1243      C1253   1.309       .  A
C1244      O1257   1.261       .  A
C1244      C1354   1.475       .  S
C1246      O1704   1.262       .  A
C1246      O1255   1.259       .  A
C1246      C1793   1.475       .  S
C1247      O1249   1.257       .  A
C1247      C1333   1.481       .  S
O1249     Tb1703   2.360       .  S
O1251      C1252   1.325       .  A
C1254      O1720   1.262       .  A
C1254      C1350   1.477       .  S
O1256      C1718   1.262       .  A
O1256     Tb1698   2.375       .  S
O1257     Tb1698   2.356       .  S
C1259      C1261   1.536       .  S
C1259      C1263   1.533       .  S
C1259      C1262   1.520       .  S
C1260      C1264   1.532       .  S
C1260      C1266   1.538       .  S
C1260      C1265   1.523       .  S
C1260      C1316   1.430       .  S
C1261      C1269   1.377       .  A
C1261      C1264   1.374       .  A
C1262      C1273   1.383       .  A
C1262      C1265   1.359       .  A
C1263      C1277   1.374       .  A
C1263      C1266   1.376       .  A
C1264      C1267   1.377       .  A
C1265      C1271   1.375       .  A
C1266      C1274   1.389       .  A
C1267      N1268   1.353       .  A
C1267      H1280   1.083       .  S
N1268      C1269   1.360       .  A
N1268      C1345   1.436       .  S
C1271      N1272   1.352       .  A
C1271      H1281   1.083       .  S
N1272      C1273   1.360       .  A
N1272      C1337   1.435       .  S
C1274      N1275   1.359       .  A
C1274      H1276   1.082       .  S
N1275      C1277   1.347       .  A
N1275      C1342   1.435       .  S
C1282      C1284   1.544       .  S
C1282      C1286   1.541       .  S
C1282      C1285   1.509       .  S
C1282      C1319   1.438       .  S
C1283      C1287   1.537       .  S
C1283      C1289   1.536       .  S
C1283      C1288   1.527       .  S
C1283      C1309   1.439       .  S
C1284      C1292   1.389       .  A
C1284      C1287   1.371       .  A
C1285      C1296   1.371       .  A
C1285      C1288   1.357       .  A
C1286      C1300   1.384       .  A
C1286      C1289   1.388       .  A
C1287      C1290   1.379       .  A
C1288      C1294   1.382       .  A
C1289      C1297   1.384       .  A
C1290      N1291   1.354       .  A
C1290      H1303   1.082       .  S
N1291      C1292   1.362       .  A
N1291      C1334   1.444       .  S
C1292      H1293   1.081       .  S
C1294      N1295   1.358       .  A
C1294      H1304   1.082       .  S
N1295      C1296   1.358       .  A
N1295      C1326   1.439       .  S
C1296      H1302   1.082       .  S
C1297      N1298   1.353       .  A
C1297      H1299   1.079       .  S
N1298      C1300   1.346       .  A
N1298      C1330   1.438       .  S
C1300      H1301   1.083       .  S
C1305      C1306   1.398       .  A
C1305      C1310   1.353       .  A
C1305      H1311   1.082       .  S
C1306      C1307   1.399       .  A
C1307      C1308   1.363       .  A
C1307      H1312   1.082       .  S
C1308      C1309   1.393       .  A
C1308      H1313   1.080       .  S
C1309      C1310   1.393       .  A
C1310      H1314   1.084       .  S
C1315      C1316   1.398       .  A
C1315      C1320   1.357       .  A
C1315      H1321   1.083       .  S
C1316      C1317   1.402       .  A
C1317      C1318   1.362       .  A
C1317      H1322   1.081       .  S
C1318      C1319   1.389       .  A
C1318      H1323   1.083       .  S
C1319      C1320   1.393       .  A
C1320      H1324   1.083       .  S
C1325      C1326   1.341       .  D
C1325      H1327   1.084       .  S
C1326      H1328   1.087       .  S
C1329      C1710   1.464       .  S
C1329      C1330   1.339       .  D
C1329      H1795   1.083       .  S
C1330      H1332   1.087       .  S
H1331      C1793   1.083       .  S
C1333      C1334   1.343       .  D
C1333      H1335   1.085       .  S
C1334      H1336   1.087       .  S
C1337      C1338   1.339       .  D
C1337      H1339   1.087       .  S
C1338      H1340   1.086       .  S
C1341      C1684   1.477       .  S
C1341      C1342   1.341       .  D
C1341      H1807   1.086       .  S
C1342      H1344   1.088       .  S
H1343      C1805   1.085       .  S
C1345      C1346   1.339       .  D
C1345      H1347   1.087       .  S
C1346      H1348   1.083       .  S
C1349      C1350   1.342       .  D
C1349      H1351   1.088       .  S
C1350      H1352   1.085       .  S
C1353      C1354   1.340       .  D
C1353      H1355   1.087       .  S
C1354      H1356   1.085       .  S
C1357      C1358   1.343       .  D
C1357      H1359   1.088       .  S
C1358      H1360   1.085       .  S
C1361      C1362   1.344       .  D
C1361      H1363   1.087       .  S
C1365      C1366   1.336       .  D
C1366      H1368   1.085       .  S
C1369      C1370   1.336       .  D
C1369      H1371   1.085       .  S
C1373      C1374   1.385       .  A
C1373      C1378   1.357       .  A
C1373      H1379   1.080       .  S
C1374      C1375   1.403       .  A
C1375      C1376   1.354       .  A
C1375      H1380   1.084       .  S
C1376      C1377   1.387       .  A
C1376      H1381   1.081       .  S
C1377      C1378   1.404       .  A
C1378      H1382   1.083       .  S
C1383      C1384   1.388       .  A
C1383      C1388   1.362       .  A
C1383      H1389   1.077       .  S
C1384      C1385   1.392       .  A
C1385      C1386   1.354       .  A
C1385      H1390   1.084       .  S
C1386      C1387   1.398       .  A
C1386      H1391   1.080       .  S
C1387      C1388   1.401       .  A
C1388      H1392   1.081       .  S
C1393      C1395   1.533       .  S
C1393      C1397   1.556       .  S
C1393      C1396   1.539       .  S
C1393      C1616   1.438       .  S
C1394      C1398   1.518       .  S
C1394      C1400   1.535       .  S
C1394      C1399   1.527       .  S
C1394      C1606   1.431       .  S
C1395      C1403   1.387       .  A
C1395      C1630   1.356       .  A
C1396      C1407   1.392       .  A
C1396      C1631   1.379       .  A
C1397      C1411   1.391       .  A
C1397      C1632   1.383       .  A
C1398      C1627   1.357       .  A
C1398      C1401   1.374       .  A
C1399      C1628   1.376       .  A
C1399      C1405   1.378       .  A
C1400      C1629   1.385       .  A
C1400      C1408   1.386       .  A
C1401      N1402   1.351       .  A
C1401      H1414   1.083       .  S
N1402      C1635   1.361       .  A
N1402      C1834   1.437       .  S
C1403      N1634   1.359       .  A
C1403      H1404   1.082       .  S
C1405      N1638   1.347       .  A
C1405      H1415   1.083       .  S
N1406      C1637   1.345   1_554  A
N1406      C1407   1.357       .  A
N1406      C1597   1.437       .  S
C1407      H1413   1.080       .  S
C1408      N1409   1.355       .  A
C1408      H1410   1.080       .  S
N1409      C1643   1.354       .  A
N1409      C1593   1.448       .  S
C1411      N1641   1.353       .  A
C1411      H1412   1.081       .  S
C1416      C1418   1.524       .  S
C1416      C1420   1.524       .  S
C1416      C1419   1.527       .  S
C1416      C1609   1.429       .  S
C1417      C1421   1.541       .  S
C1417      C1423   1.544       .  S
C1417      C1422   1.532       .  S
C1417      C1619   1.434       .  S
C1418      C1426   1.383       .  A
C1418      C1421   1.370       .  A
C1419      C1430   1.376       .  A
C1419      C1422   1.365       .  A
C1420      C1434   1.367       .  A
C1420      C1423   1.369       .  A
C1421      C1424   1.380       .  A
C1422      C1428   1.382       .  A
C1423      C1431   1.391       .  A
C1424      N1425   1.353       .  A
C1424      H1437   1.082       .  S
N1425      C1426   1.357       .  A
N1425      C1589   1.438       .  S
C1426      H1427   1.082       .  S
C1428      N1429   1.360       .  A
C1428      H1438   1.081       .  S
N1429      C1430   1.352       .  A
N1429      C1585   1.437       .  S
C1430      H1436   1.083       .  S
C1431      N1432   1.361       .  A
C1431      H1433   1.082       .  S
N1432      C1434   1.348       .  A
N1432      C1581   1.434       .  S
C1434      H1435   1.083       .  S
C1439      O1686   1.260       .  A
C1439      O1441   1.264       .  A
C1439      C1601   1.476       .  S
Tb1440     O1688   2.626   1_554  S
Tb1440     O1451   2.542       .  S
Tb1440     O1676   2.372       .  S
Tb1440     O1461   2.364       .  S
O1441     Tb1445   2.372       .  S
O1442      C1453   1.258       .  A
C1443      O1448   1.255   1_554  A
C1443      O1464   1.260       .  A
C1443      C1570   1.470       .  S
O1444      C1460   1.265       .  A
O1444     Tb1672   2.381       .  S
Tb1445     O1681   2.534   1_554  S
Tb1445     O1686   2.340       .  S
Tb1445     O1448   2.333   1_554  S
Tb1445     O1457   2.602       .  S
O1447      C1450   1.253   1_455  A
O1449      C1459   1.301       .  A
O1449     Tb1677   2.525       .  S
C1450      O1463   1.259       .  A
C1450      C1598   1.470       .  S
C1452      O1461   1.261       .  A
C1453      O1455   1.261   1_554  A
C1453      C1578   1.478       .  S
O1454      C1671   1.261       .  A
O1454     Tb1677   2.342       .  S
O1456     Tb1672   2.537       .  S
O1457      C1458   1.321       .  A
C1458      C1485   1.689       .  S
C1459      C1484   1.698       .  S
C1460      C1594   1.479       .  S
C1465      O1480   1.260       .  A
C1465      O1467   1.261       .  A
C1465      C1590   1.472       .  S
Tb1466     O1482   2.605       .  S
Tb1466     O1477   2.522       .  S
Tb1466     O1470   2.328       .  S
Tb1466     O1487   2.353       .  S
O1467     Tb1471   2.366       .  S
O1468      C1479   1.264       .  A
C1469      O1474   1.253       .  A
C1469      O1490   1.260       .  A
C1469      C1557   1.471       .  S
O1470      C1486   1.260       .  A
Tb1471     O1475   2.540       .  S
Tb1471     O1480   2.344       .  S
Tb1471     O1474   2.317       .  S
Tb1471     O1483   2.632       .  S
O1473      C1476   1.250   1_455  A
O1475      C1485   1.307       .  A
C1476      O1489   1.261       .  A
C1476      C1586   1.469       .  S
C1478      O1487   1.257       .  A
C1479      O1481   1.262       .  A
C1479      C1565   1.478       .  S
O1483      C1484   1.328       .  A
C1486      C1582   1.474       .  S
C1491      C1493   1.539   1_556  S
C1491      C1495   1.534   1_556  S
C1491      C1494   1.520   1_556  S
C1491      C1770   1.431       .  S
C1492      C1496   1.532       .  S
C1492      C1498   1.534       .  S
C1492      C1497   1.519       .  S
C1492      C1548   1.430       .  S
C1493      C1501   1.385   1_554  A
C1493      C1496   1.375       .  A
C1494      C1505   1.380   1_554  A
C1494      C1497   1.354       .  A
C1495      C1509   1.377   1_554  A
C1495      C1498   1.384       .  A
C1496      C1499   1.373       .  A
C1497      C1503   1.377       .  A
C1498      C1506   1.384       .  A
C1499      N1500   1.354       .  A
C1499      H1512   1.083       .  S
N1500      C1501   1.362   1_554  A
N1500      C1577   1.438       .  S
C1501      H1734   1.082       .  S
H1502      C1733   1.082       .  S
C1503      N1504   1.353       .  A
C1503      H1513   1.083       .  S
N1504      C1505   1.358   1_554  A
N1504      C1569   1.435       .  S
C1505      H1743   1.082       .  S
C1506      N1507   1.353       .  A
C1506      H1508   1.082       .  S
N1507      C1509   1.346   1_554  A
N1507      C1574   1.432       .  S
C1509      H1742   1.083       .  S
H1510      C1741   1.083       .  S
H1511      C1737   1.083       .  S
C1514      C1516   1.544       .  S
C1514      C1518   1.539       .  S
C1514      C1517   1.511       .  S
C1514      C1551   1.435       .  S
C1515      C1519   1.532       .  S
C1515      C1521   1.542       .  S
C1515      C1520   1.531       .  S
C1515      C1541   1.431       .  S
C1516      C1524   1.385       .  A
C1516      C1519   1.370       .  A
C1517      C1528   1.371       .  A
C1517      C1520   1.356       .  A
C1518      C1532   1.385       .  A
C1518      C1521   1.385       .  A
C1519      C1522   1.381       .  A
C1520      C1526   1.387       .  A
C1521      C1529   1.388       .  A
C1522      N1523   1.357       .  A
C1522      H1535   1.082       .  S
N1523      C1524   1.358       .  A
N1523      C1566   1.442       .  S
C1524      H1525   1.082       .  S
C1526      N1527   1.361       .  A
C1526      H1536   1.083       .  S
N1527      C1528   1.358       .  A
N1527      C1558   1.445       .  S
C1528      H1534   1.081       .  S
C1529      N1530   1.355       .  A
C1529      H1531   1.080       .  S
N1530      C1532   1.347       .  A
N1530      C1562   1.442       .  S
C1532      H1533   1.082       .  S
C1537      C1538   1.394       .  A
C1537      C1542   1.357       .  A
C1537      H1543   1.081       .  S
C1538      C1723   1.433       .  S
C1538      C1539   1.398       .  A
C1539      C1540   1.351       .  A
C1539      H1544   1.083       .  S
C1540      C1541   1.390       .  A
C1540      H1545   1.081       .  S
C1541      C1542   1.396       .  A
C1542      H1546   1.084       .  S
C1547      C1548   1.399       .  A
C1547      C1552   1.359       .  A
C1547      H1553   1.083       .  S
C1548      C1549   1.399       .  A
C1549      C1550   1.359       .  A
C1549      H1554   1.082       .  S
C1550      C1551   1.391       .  A
C1550      H1555   1.083       .  S
C1551      C1552   1.393       .  A
C1552      H1556   1.083       .  S
C1557      C1558   1.346       .  D
C1557      H1559   1.083       .  S
C1558      H1560   1.086       .  S
C1561      C1562   1.342       .  D
C1562      H1564   1.087       .  S
C1565      C1566   1.348       .  D
C1565      H1567   1.085       .  S
C1566      H1568   1.087       .  S
C1569      C1570   1.341       .  D
C1569      H1571   1.087       .  S
C1570      H1572   1.085   1_554  S
C1573      C1574   1.341       .  D
C1574      H1576   1.088   1_554  S
C1577      C1578   1.345       .  D
C1577      H1579   1.088       .  S
C1578      H1580   1.085   1_554  S
C1581      C1582   1.341       .  D
C1581      H1583   1.088       .  S
C1582      H1584   1.085       .  S
C1585      C1586   1.339       .  D
C1585      H1587   1.087       .  S
C1586      H1588   1.085       .  S
C1589      C1590   1.344       .  D
C1589      H1591   1.087       .  S
C1590      H1592   1.085       .  S
C1593      C1594   1.347       .  D
C1593      H1595   1.087       .  S
C1594      H1828   1.084       .  S
H1596      C1826   1.085   1_556  S
C1597      C1598   1.340       .  D
C1597      H1831   1.087   1_554  S
C1598      H1600   1.085       .  S
H1599      C1829   1.087       .  S
C1601      C1602   1.343       .  D
C1601      H1603   1.085       .  S
C1602      N1634   1.435       .  S
C1602      H1836   1.088   1_554  S
H1604      C1834   1.088       .  S
C1605      C1606   1.385       .  A
C1605      C1610   1.354       .  A
C1605      H1611   1.080       .  S
C1606      C1607   1.400       .  A
C1607      C1608   1.354       .  A
C1607      H1612   1.084       .  S
C1608      C1609   1.390       .  A
C1608      H1613   1.080       .  S
C1609      C1610   1.404       .  A
C1610      H1614   1.083       .  S
C1615      C1616   1.387       .  A
C1615      C1620   1.362       .  A
C1615      H1621   1.079       .  S
C1616      C1617   1.392       .  A
C1617      C1618   1.352       .  A
C1617      H1622   1.084       .  S
C1618      C1619   1.397       .  A
C1618      H1623   1.080       .  S
C1619      C1620   1.404       .  A
C1620      H1624   1.080       .  S
C1625      C1627   1.533       .  S
C1625      C1629   1.557       .  S
C1625      C1628   1.538       .  S
C1625      C1848   1.439       .  S
C1626      C1630   1.517   1_556  S
C1626      C1632   1.539   1_556  S
C1626      C1631   1.525   1_556  S
C1626      C1838   1.431       .  S
C1627      C1635   1.387       .  A
C1628      C1639   1.392       .  A
C1629      C1643   1.392       .  A
C1630      C1633   1.373   1_554  A
C1631      C1637   1.376   1_554  A
C1632      C1640   1.391   1_554  A
C1633      N1634   1.350   1_556  A
C1633      H1646   1.083       .  S
C1635      H1636   1.082       .  S
C1637      H1647   1.083       .  S
N1638      C1639   1.356       .  A
N1638      C1829   1.440       .  S
C1639      H1645   1.080       .  S
C1640      N1641   1.356   1_556  A
C1640      H1642   1.081       .  S
N1641      C1825   1.448       .  S
C1643      H1644   1.081       .  S
C1648      C1650   1.525       .  S
C1648      C1652   1.524       .  S
C1648      C1651   1.527       .  S
C1648      C1841   1.431       .  S
C1649      C1653   1.539       .  S
C1649      C1655   1.540       .  S
C1649      C1654   1.533       .  S
C1649      C1851   1.434       .  S
C1650      C1658   1.383       .  A
C1650      C1653   1.369       .  A
C1651      C1662   1.374       .  A
C1651      C1654   1.367       .  A
C1652      C1666   1.367       .  A
C1652      C1655   1.368       .  A
C1653      C1656   1.377       .  A
C1654      C1660   1.383       .  A
C1655      C1663   1.388       .  A
C1656      N1657   1.353       .  A
C1656      H1669   1.083       .  S
N1657      C1658   1.360       .  A
N1657      C1821   1.438       .  S
C1658      H1659   1.082       .  S
C1660      N1661   1.361       .  A
C1660      H1670   1.081       .  S
N1661      C1662   1.352       .  A
N1661      C1817   1.438       .  S
C1662      H1668   1.083       .  S
C1663      N1664   1.359       .  A
C1663      H1665   1.082       .  S
N1664      C1666   1.349       .  A
N1664      C1813   1.431       .  S
C1666      H1667   1.083       .  S
C1671      O1673   1.262       .  A
C1671      C1833   1.475       .  S
Tb1672     O1683   2.601       .  S
Tb1672     O1693   2.367       .  S
O1673     Tb1677   2.369       .  S
O1674      C1685   1.257       .  A
C1675      O1680   1.260       .  A
C1675      O1696   1.254       .  A
C1675      C1802   1.470       .  S
O1676      C1692   1.262       .  A
Tb1677     O1680   2.345       .  S
Tb1677     O1689   2.592       .  S
O1679      C1682   1.257       .  A
O1681      C1691   1.304       .  A
C1682      O1695   1.259       .  A
C1682      C1830   1.474       .  S
C1684      O1693   1.262       .  A
C1685      O1687   1.263       .  A
C1685      C1810   1.465       .  S
O1689      C1690   1.318       .  A
C1690      C1717   1.681       .  S
C1691      C1716   1.695       .  S
C1692      C1826   1.485       .  S
C1697      O1712   1.261       .  A
C1697      O1699   1.262       .  A
C1697      C1822   1.474       .  S
Tb1698     O1714   2.601       .  S
Tb1698     O1709   2.524       .  S
Tb1698     O1702   2.320       .  S
Tb1698     O1719   2.343       .  S
O1699     Tb1703   2.366       .  S
O1700      C1711   1.266       .  A
C1701      O1706   1.252       .  A
C1701      O1722   1.262       .  A
C1701      C1789   1.469       .  S
O1702      C1718   1.259       .  A
Tb1703     O1707   2.539       .  S
Tb1703     O1712   2.344       .  S
Tb1703     O1706   2.318       .  S
Tb1703     O1715   2.626       .  S
O1705      C1708   1.251   1_455  A
O1707      C1717   1.308       .  A
C1708      O1721   1.260       .  A
C1708      C1818   1.471       .  S
C1710      O1719   1.256       .  A
C1711      O1713   1.256       .  A
C1711      C1797   1.481       .  S
O1715      C1716   1.327       .  A
C1718      C1814   1.472       .  S
C1723      C1725   1.526       .  S
C1723      C1727   1.526       .  S
C1723      C1726   1.520       .  S
C1724      C1728   1.547       .  S
C1724      C1730   1.551       .  S
C1724      C1729   1.522       .  S
C1724      C1780   1.439       .  S
C1725      C1733   1.378       .  A
C1725      C1728   1.391       .  A
C1726      C1737   1.378       .  A
C1726      C1729   1.357       .  A
C1727      C1741   1.369       .  A
C1727      C1730   1.370       .  A
C1728      C1731   1.386       .  A
C1729      C1735   1.379       .  A
C1730      C1738   1.398       .  A
C1731      N1732   1.349       .  A
C1731      H1744   1.082       .  S
N1732      C1733   1.347       .  A
N1732      C1809   1.432       .  S
C1735      N1736   1.361       .  A
C1735      H1745   1.082       .  S
N1736      C1737   1.353       .  A
N1736      C1801   1.439       .  S
C1738      N1739   1.366       .  A
C1738      H1740   1.082       .  S
N1739      C1741   1.350       .  A
N1739      C1806   1.442       .  S
C1746      C1748   1.546       .  S
C1746      C1750   1.542       .  S
C1746      C1749   1.524       .  S
C1746      C1783   1.438       .  S
C1747      C1751   1.533       .  S
C1747      C1753   1.539       .  S
C1747      C1752   1.514       .  S
C1747      C1773   1.433       .  S
C1748      C1756   1.389       .  A
C1748      C1751   1.373       .  A
C1749      C1760   1.381       .  A
C1749      C1752   1.355       .  A
C1750      C1764   1.386       .  A
C1750      C1753   1.385       .  A
C1751      C1754   1.377       .  A
C1752      C1758   1.377       .  A
C1753      C1761   1.387       .  A
C1754      N1755   1.352       .  A
C1754      H1767   1.082       .  S
N1755      C1756   1.365       .  A
N1755      C1798   1.444       .  S
C1756      H1757   1.081       .  S
C1758      N1759   1.353       .  A
C1758      H1768   1.083       .  S
N1759      C1760   1.361       .  A
N1759      C1790   1.438       .  S
C1760      H1766   1.082       .  S
C1761      N1762   1.355       .  A
C1761      H1763   1.080       .  S
N1762      C1764   1.351       .  A
N1762      C1794   1.444       .  S
C1764      H1765   1.083       .  S
C1769      C1770   1.393       .  A
C1769      C1774   1.359       .  A
C1769      H1775   1.083       .  S
C1770      C1771   1.402       .  A
C1771      C1772   1.356       .  A
C1771      H1776   1.082       .  S
C1772      C1773   1.390       .  A
C1772      H1777   1.082       .  S
C1773      C1774   1.397       .  A
C1774      H1778   1.083       .  S
C1779      C1780   1.391       .  A
C1779      C1784   1.360       .  A
C1779      H1785   1.084       .  S
C1780      C1781   1.397       .  A
C1781      C1782   1.363       .  A
C1781      H1786   1.081       .  S
C1782      C1783   1.394       .  A
C1782      H1787   1.083       .  S
C1783      C1784   1.400       .  A
C1784      H1788   1.082       .  S
C1789      C1790   1.339       .  D
C1789      H1791   1.085       .  S
C1790      H1792   1.087       .  S
C1793      C1794   1.345       .  D
C1794      H1796   1.087       .  S
C1797      C1798   1.341       .  D
C1797      H1799   1.085       .  S
C1798      H1800   1.087       .  S
C1801      C1802   1.340       .  D
C1801      H1803   1.087       .  S
C1802      H1804   1.085       .  S
C1805      C1806   1.345       .  D
C1806      H1808   1.088       .  S
C1809      C1810   1.344       .  D
C1809      H1811   1.087       .  S
C1810      H1812   1.086       .  S
C1813      C1814   1.342       .  D
C1813      H1815   1.088       .  S
C1814      H1816   1.085       .  S
C1817      C1818   1.339       .  D
C1817      H1819   1.087       .  S
C1818      H1820   1.085       .  S
C1821      C1822   1.344       .  D
C1821      H1823   1.088       .  S
C1822      H1824   1.085       .  S
C1825      C1826   1.348       .  D
C1825      H1827   1.087       .  S
C1829      C1830   1.343       .  D
C1830      H1832   1.084       .  S
C1833      C1834   1.343       .  D
C1833      H1835   1.085       .  S
C1837      C1838   1.384       .  A
C1837      C1842   1.353       .  A
C1837      H1843   1.081       .  S
C1838      C1839   1.399       .  A
C1839      C1840   1.357       .  A
C1839      H1844   1.084       .  S
C1840      C1841   1.392       .  A
C1840      H1845   1.081       .  S
C1841      C1842   1.404       .  A
C1842      H1846   1.082       .  S
C1847      C1848   1.390       .  A
C1847      C1852   1.363       .  A
C1847      H1853   1.079       .  S
C1848      C1849   1.390       .  A
C1849      C1850   1.354       .  A
C1849      H1854   1.084       .  S
C1850      C1851   1.400       .  A
C1850      H1855   1.080       .  S
C1851      C1852   1.401       .  A
C1852      H1856   1.080       .  S
