geometry optimzed in LAMMPS
_audit_creation_date              2020-11-30 
_audit_creation_method            'lammps2cif' 
_symmetry_space_group_name_H-M    'P1' 
_symmetry_Int_Tables_number       1 
_symmetry_cell_setting            triclinic 
loop_ 
_symmetry_equiv_pos_as_xyz 
  x,y,z 
_cell_length_a                    42.0015673 
_cell_length_b                    42.0963900232175 
_cell_length_c                    41.9245254586734 
_cell_angle_alpha                 89.31306467675354 
_cell_angle_beta                  89.96397503761757 
_cell_angle_gamma                 89.62286235412442 
loop_ 
_atom_site_label 
_atom_site_type_symbol 
_atom_site_fract_x 
_atom_site_fract_y 
_atom_site_fract_z 
_atom_site_charge 
O1          O  0.78214247  0.68868484  0.83335073    -0.86900
C2          C  0.78985085  0.72703058  0.65226752     1.13200
O3          O  0.73987328  0.72035047  0.78124038    -1.34700
O4          O  0.84030299  0.74545220  0.71654912    -0.88400
O5          O  0.73483760  0.70328895  0.85261816    -0.89000
O6          O  0.75266418  0.78264090  0.82500294    -0.77800
O7          O  0.80763361  0.71404149  0.77085432    -0.99900
C8          C  0.77277100  0.83078947  0.74597896     1.23200
O9          O  0.71398536  0.77609321  0.75573482    -1.34800
Mn10       Mn  0.72030162  0.72942039  0.73392180     1.82100
O11         O  0.77862505  0.81470050  0.77081132    -0.76900
O12         O  0.82071209  0.79302252  0.70284610    -0.86300
C13         C  0.71116368  0.76533559  0.67277233     1.14300
C14         C  0.84402107  0.77464169  0.70964015     1.09000
O15         O  0.67234960  0.71312984  0.74039117    -0.77900
O16         O  0.76788542  0.74924135  0.72872313    -1.31500
O17         O  0.67208785  0.73357055  0.78590422    -0.97100
C18         C  0.69393804  0.85159022  0.78316835     1.07700
Mn19       Mn  0.77200266  0.78618921  0.69439525     1.48600
O20         O  0.68701463  0.82775227  0.80099852    -0.86300
Mn21       Mn  0.70376149  0.71618169  0.81577550     1.49600
O22         O  0.74187335  0.64734720  0.79161154    -0.90100
C23         C  0.82239261  0.73284179  0.78675112     1.20900
C24         C  0.71247675  0.64430081  0.79811209     1.13000
Mn25       Mn  0.76086680  0.76748403  0.77675390     1.81000
O26         O  0.72607324  0.78441532  0.68816973    -0.95300
Mn27       Mn  0.77465804  0.68385978  0.78377917     1.49300
C28         C  0.76366151  0.69485926  0.85667683     1.09500
Mn29       Mn  0.71123134  0.81312739  0.72130147     1.49900
C30         C  0.63830778  0.80050100  0.73018188     1.12400
O31         O  0.70736622  0.76189321  0.82325020    -1.01100
O32         O  0.78209823  0.75582978  0.65671399    -0.90800
C33         C  0.72688749  0.77610091  0.83886468     1.23700
O34         O  0.75752781  0.81787293  0.72513081    -1.01500
O35         O  0.79657759  0.70805890  0.67524541    -0.88900
O36         O  0.66191170  0.80688958  0.71200307    -0.88500
O37         O  0.69488121  0.66795716  0.80556532    -0.88500
Mn38       Mn  0.80320078  0.71356219  0.72459591     1.47900
O39         O  0.70424476  0.73952569  0.68642514    -0.77000
C40         C  0.65714976  0.72029672  0.76520276     1.16700
O41         O  0.80800097  0.75798316  0.79424244    -0.75700
O42         O  0.72779949  0.68255691  0.71524064    -0.75300
Mn43       Mn  0.67831240  0.77922075  0.79093067     1.51100
O44         O  0.70114831  0.84855336  0.75398575    -0.87700
O45         O  0.77288561  0.68056239  0.73726292    -0.95200
O46         O  0.64212926  0.79202538  0.75909270    -0.90200
C47         C  0.75303484  0.66726593  0.72115405     1.14500
O48         O  0.83193277  0.69328371  0.20739309    -0.86900
C49         C  0.64769958  0.71650730  0.21202360     1.13200
O50         O  0.77959317  0.71288519  0.25298716    -1.34700
O51         O  0.70435710  0.73654904  0.15786724    -0.88400
O52         O  0.85076966  0.69235637  0.25685964    -0.89000
O53         O  0.82124145  0.77528640  0.23882963    -0.77800
O54         O  0.76486994  0.70888308  0.18418422    -0.99900
C55         C  0.74083663  0.82423814  0.22507279     1.23200
O56         O  0.75474634  0.76632914  0.28095091    -1.34800
Mn57       Mn  0.73321910  0.71996132  0.27524766     1.82100
O58         O  0.76535278  0.80911882  0.21648504    -0.76900
O59         O  0.69786648  0.78538256  0.17648098    -0.86300
C60         C  0.67129549  0.75316221  0.28694197     1.14300
C61         C  0.70120445  0.76629483  0.15337130     1.09000
O62         O  0.74171048  0.70284884  0.32299102    -0.77900
O63         O  0.72511544  0.74068515  0.22820962    -1.31500
O64         O  0.78683907  0.72350649  0.32054971    -0.97100
C65         C  0.78231881  0.84044640  0.29963238     1.07700
Mn66       Mn  0.69007107  0.77638942  0.22534260     1.48600
O67         O  0.80137135  0.81690870  0.30307299    -0.86300
Mn68       Mn  0.81462116  0.70595621  0.28801220     1.49600
O69         O  0.79917203  0.64175393  0.24595843    -0.90100
C70         C  0.77821103  0.73018387  0.16877478     1.20900
C71         C  0.79955123  0.63570905  0.27559221     1.13000
Mn72       Mn  0.77292699  0.76055131  0.23277955     1.81000
O73         O  0.68617653  0.77291385  0.27196227    -0.95300
Mn74       Mn  0.78419740  0.67932835  0.21684839     1.49300
C75         C  0.85503034  0.69537440  0.22706285     1.09500
Mn76       Mn  0.71973141  0.80116107  0.28783187     1.49900
C77         C  0.73377560  0.78412598  0.35802994     1.12400
O78         O  0.82324040  0.75154751  0.28351108    -1.01100
O79         O  0.65269076  0.74587206  0.21577959    -0.90800
C80         C  0.83744822  0.76554434  0.26235565     1.23700
O81         O  0.72089801  0.80919279  0.24051782    -1.01500
O82         O  0.67034801  0.69668819  0.20734677    -0.88900
O83         O  0.71349631  0.78930090  0.33602071    -0.88500
O84         O  0.80165546  0.65772027  0.29622514    -0.88500
Mn85       Mn  0.71824527  0.70480836  0.19430923     1.47900
O86         O  0.68609145  0.72796245  0.29402619    -0.77000
C87         C  0.76702380  0.71035028  0.33685925     1.16700
O88         O  0.78731130  0.75408133  0.18398512    -0.75700
O89         O  0.71672314  0.67321720  0.26824513    -0.75300
Mn90       Mn  0.79229088  0.76884063  0.31390118     1.51100
O91         O  0.75231013  0.83696188  0.29820390    -0.87700
O92         O  0.73779069  0.67108956  0.22225450    -0.95200
O93         O  0.76328997  0.78096121  0.35238476    -0.90200
C94         C  0.72490999  0.65711965  0.24446827     1.14500
O95         O  0.67958695  0.20515201  0.84925678    -0.86900
C96         C  0.70724285  0.19802385  0.66721332     1.13200
O97         O  0.70264123  0.24899802  0.79520017    -1.34700
O98         O  0.72750725  0.14925418  0.72866628    -0.88400
O99         O  0.68541006  0.25444662  0.86674226    -0.89000
O100        O  0.76601366  0.23778185  0.83724267    -0.77800
O101        O  0.69929556  0.18064251  0.78502401    -0.99900
C102        C  0.81362587  0.22094144  0.75954620     1.23200
O103        O  0.75663958  0.27631788  0.76838358    -1.34800
Mn104      Mn  0.70986988  0.26878361  0.74748752     1.82100
O105        O  0.79761048  0.21329172  0.78370280    -0.76900
O106        O  0.77650437  0.16817443  0.72261587    -0.86300
C107        C  0.74204579  0.27623510  0.68395623     1.14300
C108        C  0.75740785  0.14505700  0.72669032     1.09000
O109        O  0.69213936  0.31647844  0.75292791    -0.77900
O110        O  0.73085623  0.22161734  0.74263028    -1.31500
O111        O  0.71302556  0.31819810  0.79906408    -0.97100
C112        C  0.83257095  0.29905767  0.79375960     1.07700
Mn113      Mn  0.76760595  0.21575388  0.70903881     1.48600
O114        O  0.80925375  0.30271407  0.81298033    -0.86300
Mn115      Mn  0.69645130  0.28471512  0.82912990     1.49600
O116        O  0.63062804  0.24247036  0.81015091    -0.90100
C117        C  0.71985286  0.16630408  0.79966888     1.20900
C118        C  0.62542581  0.27213909  0.81132478     1.13000
Mn119      Mn  0.75020338  0.22937759  0.78992558     1.81000
O120        O  0.76398621  0.26273621  0.69857729    -0.95300
Mn121      Mn  0.66898145  0.21244854  0.80018987     1.49300
C122        C  0.68387315  0.22482131  0.87182531     1.09500
Mn123      Mn  0.79210298  0.28092008  0.73310271     1.49900
C124        C  0.77447772  0.35243490  0.74167956     1.12400
O125        O  0.74309396  0.28250676  0.83676479    -1.01100
O126        O  0.73680175  0.20172288  0.67235420    -0.90800
C127        C  0.75772771  0.26232805  0.85193334     1.23700
O128        O  0.79967783  0.23460994  0.73787205    -1.01500
O129        O  0.68727381  0.19507308  0.68996826    -0.88900
O130        O  0.78032576  0.32924016  0.72310060    -0.88500
O131        O  0.64776672  0.29184627  0.81673232    -0.88500
Mn132      Mn  0.69558368  0.18633672  0.73897012     1.47900
O133        O  0.71768205  0.28437544  0.69942921    -0.77000
C134        C  0.69889616  0.33232597  0.77725286     1.16700
O135        O  0.74370622  0.18204653  0.80795892    -0.75700
O136        O  0.66297088  0.26035239  0.73067460    -0.75300
Mn137      Mn  0.76039379  0.31154799  0.80358064     1.51100
O138        O  0.82827074  0.29384838  0.76437304    -0.87700
O139        O  0.66244237  0.21559042  0.75401848    -0.95200
O140        O  0.77122763  0.34838184  0.77156234    -0.90200
C141        C  0.64784276  0.23598700  0.73914868     1.14500
O142        O  0.18433711  0.32598185  0.83619199    -0.86900
C143        C  0.17046184  0.28350713  0.65959906     1.13200
O144        O  0.22692168  0.29167191  0.78711469    -1.34700
O145        O  0.12752534  0.26410784  0.72566014    -0.88400
O146        O  0.23008569  0.30884277  0.85796815    -0.89000
O147        O  0.21545266  0.22778328  0.83123146    -0.77800
O148        O  0.15930696  0.29712262  0.77741558    -0.99900
C149        C  0.20084448  0.18052261  0.75062303     1.23200
O150        O  0.25465391  0.23816263  0.76178213    -1.34800
Mn151      Mn  0.24730607  0.28444897  0.73985848     1.82100
O152        O  0.19228992  0.19468639  0.77572161    -0.76900
O153        O  0.14877654  0.21666293  0.71510127    -0.86300
C154        C  0.25517589  0.25270586  0.67580817     1.14300
C155        C  0.12504964  0.23433297  0.72238952     1.09000
O156        O  0.29493068  0.30160449  0.74755114    -0.77900
O157        O  0.20015683  0.26331592  0.73463820    -1.31500
O158        O  0.29500272  0.28041490  0.79363167    -0.97100
C159        C  0.27707537  0.16302251  0.78637558     1.07700
Mn160      Mn  0.19631434  0.22659590  0.70136699     1.48600
O161        O  0.28041131  0.18508220  0.80684680    -0.86300
Mn162      Mn  0.26232425  0.29638103  0.82255908     1.49600
O163        O  0.22430873  0.36453856  0.79315962    -0.90100
C164        C  0.14551973  0.27810694  0.79458776     1.20900
C165        C  0.25314251  0.36805029  0.80123228     1.13000
Mn166      Mn  0.20737175  0.24372898  0.78252825     1.81000
O167        O  0.24194502  0.23169223  0.69107491    -0.95300
Mn168      Mn  0.19180260  0.32817731  0.78756966     1.49300
C169        C  0.20188408  0.31960908  0.85992140     1.09500
Mn170      Mn  0.26031874  0.20452053  0.72552075     1.49900
C171        C  0.33109623  0.22058077  0.73689569     1.12400
O172        O  0.25996681  0.25035879  0.83160185    -0.89900
O173        O  0.18020507  0.25545587  0.66481271    -0.90800
C174        C  0.23970939  0.23601054  0.84680005     1.23700
O175        O  0.21512365  0.19657270  0.73117258    -1.01500
O176        O  0.16678459  0.30354392  0.68170797    -0.88900
O177        O  0.30851456  0.21631467  0.71696217    -0.88500
O178        O  0.27037517  0.34494416  0.81140602    -0.88500
Mn179      Mn  0.16309811  0.29744277  0.73105418     1.47900
O180        O  0.26343783  0.27669532  0.69152042    -0.77000
C181        C  0.30948570  0.29537837  0.77328174     1.16700
O182        O  0.15984634  0.25217387  0.80041946    -0.75700
O183        O  0.23853368  0.33107437  0.72046032    -0.75300
Mn184      Mn  0.28924927  0.23437805  0.79823544     1.51100
O185        O  0.27381388  0.16905442  0.75696574    -0.87700
O186        O  0.19307943  0.33084253  0.74139426    -0.95200
O187        O  0.32602592  0.22373822  0.76657153    -0.90200
C188        C  0.21241140  0.34504210  0.72515894     1.14500
O189        O  0.28846638  0.80808886  0.82452844    -0.86900
C190        C  0.26616636  0.80621616  0.64144314     1.13200
O191        O  0.26569755  0.76310293  0.77234556    -1.34700
O192        O  0.24648977  0.86028738  0.69860752    -0.88400
O193        O  0.28083458  0.75935119  0.84429484    -0.89000
O194        O  0.20043558  0.77612622  0.81348541    -0.77800
O195        O  0.27126175  0.83192667  0.75866686    -0.99900
C196        C  0.15570085  0.79225161  0.73177882     1.23200
O197        O  0.21225165  0.73555334  0.74505164    -1.34800
Mn198      Mn  0.25992352  0.74222338  0.72538028     1.82100
O199        O  0.16988473  0.79955273  0.75707462    -0.76900
O200        O  0.19695330  0.84314370  0.69229950    -0.86300
C201        C  0.22877088  0.73313309  0.66222624     1.14300
C202        C  0.21690848  0.86560750  0.69608542     1.09000
O203        O  0.27668217  0.69475554  0.73368942    -0.77900
O204        O  0.23972115  0.78934822  0.71797595    -1.31500
O205        O  0.25415317  0.69515868  0.77840888    -0.97100
C206        C  0.13629642  0.71513400  0.76927149     1.07700
Mn207      Mn  0.20504222  0.79420788  0.68229657     1.48600
O208        O  0.15923536  0.70993193  0.78850603    -0.86300
Mn209      Mn  0.27046733  0.72768950  0.80762559     1.49600
O210        O  0.33703026  0.76808253  0.79015281    -0.90100
C211        C  0.24983066  0.84609601  0.77236003     1.20900
C212        C  0.34173539  0.73856095  0.79480719     1.13000
Mn213      Mn  0.21808897  0.78298737  0.76517963     1.81000
O214        O  0.20815048  0.74763180  0.67644841    -0.95300
Mn215      Mn  0.30009882  0.79910821  0.77651965     1.49300
C216        C  0.28368442  0.78912109  0.84800276     1.09500
Mn217      Mn  0.17832973  0.73031219  0.70868221     1.49900
C218        C  0.19355055  0.65881057  0.72078870     1.12400
O219        O  0.22320588  0.73128851  0.81330056    -1.01100
O220        O  0.23632547  0.80500343  0.64549811    -0.90800
C221        C  0.20833330  0.75127681  0.82858285     1.23700
O222        O  0.17132334  0.77743341  0.71192294    -1.01500
O223        O  0.28532914  0.81046894  0.66469117    -0.88900
O224        O  0.18870333  0.68162829  0.70096678    -0.88500
O225        O  0.31886655  0.71920122  0.79867253    -0.88500
Mn226      Mn  0.27626155  0.82314070  0.71284490     1.47900
O227        O  0.25321050  0.72546341  0.67792642    -0.77000
C228        C  0.26851068  0.67999292  0.75856214     1.16700
O229        O  0.22564732  0.83037070  0.78054842    -0.75700
O230        O  0.30782729  0.74928583  0.70951343    -0.75300
Mn231      Mn  0.20780098  0.70064837  0.78074865     1.51100
O232        O  0.14071161  0.71926389  0.73953854    -0.87700
O233        O  0.30816449  0.79420447  0.73103474    -0.95200
O234        O  0.19781626  0.66353024  0.75024932    -0.90200
C235        C  0.32314415  0.77343141  0.71770516     1.14500
O236        O  0.66828140  0.17764431  0.31221258    -0.86900
C237        C  0.84647369  0.20821467  0.32716462     1.13200
O238        O  0.71979198  0.20844979  0.27066707    -1.34700
O239        O  0.78199702  0.23075348  0.37138662    -0.88400
O240        O  0.64829674  0.19415148  0.26574069    -0.89000
O241        O  0.67785036  0.27287402  0.28467195    -0.77800
O242        O  0.72862071  0.20068253  0.33824158    -0.99900
C243        C  0.76044461  0.31735562  0.29990619     1.23200
O244        O  0.74758993  0.26199901  0.24501202    -1.34800
Mn245      Mn  0.76736057  0.21466456  0.25051059     1.82100
O246        O  0.73511444  0.30314984  0.30789144    -0.76900
O247        O  0.79704640  0.27774085  0.35139759    -0.86300
C248        C  0.83279114  0.24460149  0.24389441     1.14300
C249        C  0.78881431  0.25989521  0.37477019     1.09000
O250        O  0.75879972  0.19964922  0.20175857    -0.77900
O251        O  0.77331443  0.23387449  0.29855406    -1.31500
O252        O  0.71447626  0.22316678  0.20347354    -0.97100
C253        C  0.72637016  0.33854035  0.22650654     1.07700
Mn254      Mn  0.80873255  0.26891925  0.30340950     1.48600
O255        O  0.70516222  0.31711433  0.22364005    -0.86300
Mn256      Mn  0.68463502  0.20637457  0.23477363     1.49600
O257        O  0.70856820  0.13603546  0.27125893    -0.90100
C258        C  0.71266644  0.21973603  0.35300083     1.20900
C259        C  0.70135663  0.13374337  0.24194156     1.13000
Mn260      Mn  0.72627607  0.25530160  0.29191600     1.81000
O261        O  0.81796145  0.26524087  0.25772209    -0.95300
Mn262      Mn  0.71664237  0.17129699  0.30485668     1.49300
C263        C  0.64498323  0.18536133  0.29452372     1.09500
Mn264      Mn  0.78527507  0.29443920  0.23999711     1.49900
C265        C  0.77230203  0.28066980  0.16905605     1.12400
O266        O  0.67755733  0.25222561  0.23947364    -1.01100
O267        O  0.84393887  0.23687429  0.31787592    -0.90800
C268        C  0.66230521  0.26590572  0.25997603     1.23700
O269        O  0.78045876  0.30181901  0.28576596    -1.01500
O270        O  0.82308509  0.18989517  0.33154789    -0.88900
O271        O  0.79289668  0.28262910  0.19142760    -0.88500
O272        O  0.69374911  0.15792512  0.22478711    -0.88500
Mn273      Mn  0.77461025  0.19839217  0.33485772     1.47900
O274        O  0.81640209  0.22136011  0.23457452    -0.77000
C275        C  0.73352179  0.20838229  0.18759674     1.16700
O276        O  0.70791975  0.24627052  0.33939029    -0.75700
O277        O  0.78422516  0.16716485  0.25821890    -0.75300
Mn278      Mn  0.71134811  0.26881844  0.21120755     1.51100
O279        O  0.75583752  0.33201741  0.22688862    -0.87700
O280        O  0.76275738  0.16607563  0.30382765    -0.95200
O281        O  0.74260858  0.28086816  0.17459780    -0.90200
C282        C  0.77867365  0.15236099  0.28389303     1.14500
O283        O  0.20717631  0.70365719  0.16269849    -0.86900
C284        C  0.20912720  0.72750639  0.34497206     1.13200
O285        O  0.25358025  0.72567305  0.21485932    -1.34700
O286        O  0.15906692  0.74661093  0.28875994    -0.88400
O287        O  0.25449343  0.71652055  0.14197713    -0.89000
O288        O  0.24183445  0.79139400  0.17553033    -0.77800
O289        O  0.18582679  0.72118575  0.22912237    -0.99900
C290        C  0.22827706  0.83747670  0.25405240     1.23200
O291        O  0.28222197  0.77757869  0.24244132    -1.34800
Mn292      Mn  0.27493401  0.72996367  0.26228567     1.82100
O293        O  0.21912196  0.82188836  0.23022509    -0.76900
O294        O  0.17548253  0.79676401  0.29007670    -0.86300
C295        C  0.28234671  0.76126411  0.32566697     1.14300
C296        C  0.15336113  0.77617113  0.28810868     1.09000
O297        O  0.32187787  0.71120428  0.25329495    -0.77900
O298        O  0.22845325  0.75165129  0.26912608    -1.31500
O299        O  0.32084764  0.73396217  0.20842896    -0.97100
C300        C  0.31303417  0.85165144  0.22095704     1.07700
Mn301      Mn  0.22358022  0.78806339  0.30259564     1.48600
O302        O  0.31615037  0.82943602  0.20094071    -0.86300
Mn303      Mn  0.28784018  0.72332134  0.17798846     1.49600
O304        O  0.24675451  0.65610571  0.19590968    -0.90100
C305        C  0.17060353  0.74185758  0.21532825     1.20900
C306        C  0.27490366  0.65164440  0.18615224     1.13000
Mn307      Mn  0.23428171  0.77313538  0.22250316     1.81000
O308        O  0.26888678  0.78176421  0.31003557    -0.95300
Mn309      Mn  0.21691354  0.69190686  0.21089379     1.49300
C310        C  0.22514890  0.71005939  0.13887825     1.09500
Mn311      Mn  0.28736379  0.81095091  0.27904181     1.49900
C312        C  0.35853547  0.78995061  0.27063887     1.12400
O313        O  0.28745451  0.76977129  0.17420545    -1.01100
O314        O  0.20991353  0.75711930  0.33911222    -0.90800
C315        C  0.26748134  0.78634595  0.16088401     1.23700
O316        O  0.24181633  0.82195485  0.27485576    -1.01500
O317        O  0.20722643  0.70705333  0.32278437    -0.88900
O318        O  0.33490133  0.79728582  0.28834032    -0.88500
O319        O  0.29448550  0.67419630  0.18201091    -0.88500
Mn320      Mn  0.19455895  0.71558142  0.27466697     1.47900
O321        O  0.29107581  0.73668612  0.31079677    -0.77000
C322        C  0.33539818  0.71700779  0.22703726     1.16700
O323        O  0.18563211  0.76663847  0.20729434    -0.75700
O324        O  0.26706537  0.68114860  0.27799695    -0.75300
Mn325      Mn  0.31859443  0.78004685  0.20753046     1.51100
O326        O  0.30330905  0.84673391  0.24915008    -0.87700
O327        O  0.22194341  0.68196380  0.25654608    -0.95200
O328        O  0.35555210  0.78513229  0.24085501    -0.90200
C329        C  0.24253475  0.66604291  0.26982912     1.14500
C330        C  0.51829959  0.18317184  0.34610505     0.81500
N331        N  0.50980990  0.15792770  0.36444276    -0.76800
C332        C  0.47937898  0.15491758  0.37435444     0.84000
N333        N  0.45739028  0.17686285  0.36592729    -0.76700
C334        C  0.46552029  0.20190245  0.34720160     0.84100
N335        N  0.49593039  0.20475897  0.33676632    -0.78400
C336        C  0.52764369  0.29587399  0.23009870     0.81500
N337        N  0.49865812  0.28834686  0.24396012    -0.76800
C338        C  0.47061310  0.29872002  0.22976184     0.84000
N339        N  0.47225946  0.31601401  0.20218164    -0.76700
C340        C  0.50048070  0.32330697  0.18832370     0.84100
N341        N  0.52778055  0.31304069  0.20236691    -0.78400
C342        C  0.21060219  0.47467559  0.30158562     0.81500
N343        N  0.22535308  0.50241966  0.29150151    -0.76800
C344        C  0.21161420  0.53165314  0.29828480     0.84000
N345        N  0.18345322  0.53233015  0.31443579    -0.76700
C346        C  0.16909366  0.50528478  0.32459115     0.84100
N347        N  0.18284600  0.47692914  0.31810587    -0.78400
C348        C  0.30565509  0.52462586  0.14684347     0.81500
N349        N  0.29689512  0.50010943  0.16617250    -0.76800
C350        C  0.30571974  0.47010874  0.15897213     0.84000
N351        N  0.32278272  0.46457882  0.13231364    -0.76700
C352        C  0.33106876  0.48871886  0.11262464     0.84100
N353        N  0.32323461  0.51896683  0.12028698    -0.78400
C354        C  0.78465137  0.48001323  0.69314324     0.81500
N355        N  0.77271097  0.50949666  0.70076778    -0.76800
C356        C  0.78883354  0.53633991  0.69129081     0.84000
N357        N  0.81689880  0.53291356  0.67552746    -0.76700
C358        C  0.82886929  0.50397743  0.66868233     0.84100
N359        N  0.81254382  0.47774727  0.67706060    -0.78400
C360        C  0.66447456  0.51623229  0.81432640     0.81500
N361        N  0.64672035  0.51340901  0.84127529    -0.76800
C362        C  0.63840355  0.48454111  0.85288809     0.84000
N363        N  0.64750652  0.45807060  0.83741215    -0.76700
C364        C  0.66486991  0.46025852  0.81018809     0.84100
N365        N  0.67402611  0.48937137  0.79886678    -0.78400
C366        C  0.46288378  0.20358686  0.70230833     0.81500
N367        N  0.48947168  0.21907768  0.71260129    -0.76800
C368        C  0.51885082  0.20613718  0.70700716     0.84000
N369        N  0.52133077  0.17782946  0.69218860    -0.76700
C370        C  0.49511883  0.16215031  0.68295939     0.84100
N371        N  0.46604916  0.17508133  0.68789075    -0.78400
C372        C  0.44001988  0.31988102  0.81380976     0.81500
N373        N  0.46711470  0.30926261  0.79866750    -0.76800
C374        C  0.49637486  0.31508161  0.81201397     0.84000
N375        N  0.49807912  0.33042657  0.84002116    -0.76700
C376        C  0.47177541  0.34052048  0.85520443     0.84100
N377        N  0.44299442  0.33549875  0.84191419    -0.78400
N378        N  0.46380256  0.55155796  0.95491832    -0.35300
N379        N  0.52959119  0.53963337  0.97337755    -0.55900
N380        N  0.51318860  0.47215270  0.96862307    -0.35300
N381        N  0.44622295  0.48359324  0.95665077    -0.55900
C382        C  0.47443827  0.58024944  0.96368368     0.28300
C383        C  0.43179036  0.55237159  0.95634207     0.28300
C384        C  0.54408791  0.47112564  0.97682246     0.28300
C385        C  0.50196305  0.44231553  0.97004835     0.28300
C386        C  0.53199593  0.57078458  0.96569651     0.36900
C387        C  0.55914643  0.52731003  0.97016892     0.36900
C388        C  0.42238436  0.49731688  0.93969118     0.36900
C389        C  0.44978677  0.45394305  0.94499035     0.36900
C390        C  0.44878935  0.59977169  0.97084471    -0.20600
C391        C  0.42170256  0.58202316  0.96630360    -0.20600
C392        C  0.55268010  0.44022678  0.98468815    -0.20600
C393        C  0.52581311  0.42198999  0.98099070    -0.20600
C394        C  0.56336757  0.57862680  0.95939411    -0.21600
C395        C  0.58057015  0.55094715  0.96196962    -0.21600
C396        C  0.41037544  0.47611368  0.91775606    -0.21600
C397        C  0.42758803  0.44871172  0.92116942    -0.21600
C398        C  0.50571951  0.59048031  0.95819457    -0.17000
C399        C  0.41221924  0.52920016  0.94281902    -0.17000
C400        C  0.47457599  0.43253395  0.95348534    -0.17000
C401        C  0.56575204  0.49461758  0.96747954    -0.17000
H402        H  0.44933367  0.62450007  0.97736536     0.15900
H403        H  0.39738562  0.59043447  0.96826362     0.15900
H404        H  0.57645487  0.43144882  0.98968762     0.15900
H405        H  0.52486300  0.39633314  0.98258234     0.15900
H406        H  0.57236423  0.60139146  0.95135626     0.14200
H407        H  0.60556934  0.54803899  0.95637379     0.14200
H408        H  0.39230111  0.48024625  0.89980823     0.14200
H409        H  0.42500843  0.42807142  0.90632647     0.14200
H410        H  0.47759114  0.53369455  0.94430124     0.27500
H411        H  0.50207905  0.49152305  0.95717218     0.27500
N412        N  0.55124696  0.45279258  0.06842059    -0.35300
N413        N  0.48602452  0.44870173  0.04874574    -0.55900
N414        N  0.48203071  0.51644389  0.02975596    -0.35300
N415        N  0.54759078  0.51983241  0.05163244    -0.55900
C416        C  0.54063989  0.42837856  0.08691262     0.28300
C417        C  0.57611315  0.46573929  0.08389220     0.28300
C418        C  0.45095160  0.50854984  0.03102678     0.28300
C419        C  0.48366818  0.54748866  0.03789184     0.28300
C420        C  0.49123847  0.41811304  0.05746295     0.36900
C421        C  0.45806422  0.44966470  0.03299951     0.36900
C422        C  0.57932842  0.51693285  0.05465803     0.36900
C423        C  0.54174802  0.55022889  0.04313109     0.36900
C424        C  0.55929546  0.42558033  0.11404586    -0.20600
C425        C  0.58162656  0.44898941  0.11214916    -0.20600
C426        C  0.43270443  0.53557399  0.03689551    -0.20600
C427        C  0.45338877  0.55997109  0.04157999    -0.20600
C428        C  0.46673279  0.39921779  0.04683380    -0.21600
C429        C  0.44572971  0.41920306  0.03122037    -0.21600
C430        C  0.59390153  0.54554015  0.04682799    -0.21600
C431        C  0.56980876  0.56700693  0.04070509    -0.21600
C432        C  0.51414612  0.40894976  0.08036038    -0.17000
C433        C  0.59320023  0.49307641  0.07397285    -0.17000
C434        C  0.51157445  0.56408754  0.04568529    -0.17000
C435        C  0.43883293  0.47720195  0.03204130    -0.17000
H436        H  0.55656712  0.40915614  0.13388112     0.15900
H437        H  0.59896047  0.45383862  0.13048421     0.15900
H438        H  0.40716313  0.53731288  0.03965679     0.15900
H439        H  0.44691384  0.58390326  0.04829353     0.15900
H440        H  0.46323099  0.37421839  0.05192204     0.14200
H441        H  0.42238803  0.41276384  0.02258831     0.14200
H442        H  0.61887086  0.55124978  0.04921463     0.14200
H443        H  0.57236569  0.59229263  0.03658432     0.14200
H444        H  0.54233426  0.46032255  0.04642441     0.27500
H445        H  0.50089923  0.50079420  0.02623017     0.27500
C446        C  0.18096051  0.52936872  0.67949233     0.81500
N447        N  0.19189568  0.50120152  0.69216763    -0.76800
C448        C  0.17793702  0.47327693  0.68351238     0.84000
N449        N  0.15263673  0.47401127  0.66323996    -0.76700
C450        C  0.14189687  0.50190985  0.65081653     0.84100
N451        N  0.15627618  0.52927531  0.65874287    -0.78400
C452        C  0.29889963  0.49740549  0.80779752     0.81500
N453        N  0.28952101  0.52247071  0.78888840    -0.76800
C454        C  0.29867537  0.55251325  0.79641250     0.84000
N455        N  0.31592809  0.55741217  0.82314105    -0.76700
C456        C  0.32442659  0.53289238  0.84236912     0.84100
N457        N  0.31599361  0.50298198  0.83460767    -0.78400
C458        C  0.50705329  0.81772338  0.68697616     0.81500
N459        N  0.50149148  0.84447899  0.66930462    -0.76800
C460        C  0.47139652  0.85304729  0.66099367     0.84000
N461        N  0.44676532  0.83452042  0.66998924    -0.76700
C462        C  0.45160393  0.80780184  0.68763606     0.84100
N463        N  0.48181204  0.79958311  0.69680260    -0.78400
C464        C  0.52743652  0.69121458  0.79878568     0.81500
N465        N  0.49808009  0.70177349  0.78914596    -0.76800
C466        C  0.47167071  0.69333765  0.80636003     0.84000
N467        N  0.47504525  0.67600186  0.83362272    -0.76700
C468        C  0.50414781  0.66631715  0.84355222     0.84100
N469        N  0.53014127  0.67370261  0.82604650    -0.78400
C470        C  0.80518372  0.68615607  0.46655935     0.81500
N471        N  0.83279601  0.66938839  0.46446118    -0.76800
C472        C  0.84942498  0.66146403  0.49096532     0.84000
N473        N  0.83799766  0.66954710  0.51989428    -0.76700
C474        C  0.81041876  0.68628223  0.52260205     0.84100
N475        N  0.79398317  0.69501861  0.49572147    -0.78400
C476        C  0.68803271  0.80371641  0.54121766     0.81500
N477        N  0.67059183  0.83081657  0.53715296    -0.76800
C478        C  0.66314106  0.84198446  0.50770059     0.84000
N479        N  0.67290046  0.82562569  0.48197228    -0.76700
C480        C  0.69032392  0.79863324  0.48522895     0.84100
N481        N  0.69829167  0.78759486  0.51496437    -0.78400
C482        C  0.48737804  0.79973314  0.31884541     0.81500
N483        N  0.51385166  0.78205369  0.31144792    -0.76800
C484        C  0.54341811  0.79252675  0.32008856     0.84000
N485        N  0.54631181  0.82098888  0.33466341    -0.76700
C486        C  0.52026716  0.83875117  0.34115300     0.84100
N487        N  0.49108516  0.82798444  0.33353475    -0.78400
C488        C  0.46283067  0.67892564  0.18682882     0.81500
N489        N  0.49020256  0.68732442  0.20218955    -0.76800
C490        C  0.51902350  0.67750833  0.19061648     0.84000
N491        N  0.52021898  0.65986960  0.16386819    -0.76700
C492        C  0.49343473  0.65203617  0.14820084     0.84100
N493        N  0.46472911  0.66130966  0.15978355    -0.78400
N494        N  0.46422872  0.96492001  0.44496544    -0.35300
N495        N  0.53169753  0.95846863  0.46174627    -0.55900
N496        N  0.52060836  0.95332567  0.52973578    -0.35300
N497        N  0.45348999  0.95879292  0.51392262    -0.55900
C498        C  0.47654818  0.95649599  0.41652663     0.28300
C499        C  0.43364673  0.95518821  0.44526067     0.28300
C500        C  0.54867083  0.93773203  0.52599766     0.28300
C501        C  0.50585215  0.93995454  0.55518389     0.28300
C502        C  0.53298562  0.96508891  0.43026219     0.36900
C503        C  0.56178748  0.95903864  0.47275140     0.36900
C504        C  0.42392723  0.96419143  0.50249574     0.36900
C505        C  0.45180042  0.96135786  0.54588392     0.36900
C506        C  0.45280177  0.94389098  0.39757284    -0.20600
C507        C  0.42571717  0.94293839  0.41579566    -0.20600
C508        C  0.55198325  0.91470496  0.54970840    -0.20600
C509        C  0.52510965  0.91610851  0.56806924    -0.20600
C510        C  0.56424695  0.97013961  0.42112694    -0.21600
C511        C  0.58252865  0.96676202  0.44818545    -0.21600
C512        C  0.40321303  0.97037115  0.52737173    -0.21600
C513        C  0.42100905  0.96921149  0.55491697    -0.21600
C514        C  0.50935158  0.95465258  0.40930049    -0.17000
C515        C  0.41416140  0.95314044  0.47258674    -0.17000
C516        C  0.47489697  0.94771569  0.56628001    -0.17000
C517        C  0.57066491  0.94278835  0.50089261    -0.17000
H518        H  0.45530981  0.93425745  0.37388020     0.15900
H519        H  0.40330151  0.93263043  0.40876342     0.15900
H520        H  0.57104029  0.89756676  0.55286801     0.15900
H521        H  0.51989576  0.90005408  0.58767357     0.15900
H522        H  0.57310954  0.97269040  0.39699104     0.14200
H523        H  0.60828475  0.96629592  0.44902420     0.14200
H524        H  0.37758474  0.97281767  0.52591019     0.14200
H525        H  0.41176998  0.97054792  0.57897233     0.14200
H526        H  0.47673305  0.97386455  0.46413765     0.27500
H527        H  0.51185830  0.97194383  0.51566594     0.27500
N528        N  0.43827486  0.05661336  0.56145373    -0.35300
N529        N  0.43256163  0.04574257  0.49458004    -0.55900
N530        N  0.50079456  0.02866633  0.48519091    -0.35300
N531        N  0.50583514  0.04038373  0.55303950    -0.55900
C532        C  0.41326238  0.07576388  0.55350569     0.28300
C533        C  0.45267674  0.06982196  0.58685802     0.28300
C534        C  0.49198081  0.03616430  0.45510764     0.28300
C535        C  0.53219826  0.03544498  0.48732695     0.28300
C536        C  0.40185284  0.05209576  0.50149308     0.36900
C537        C  0.43359545  0.03571276  0.46422744     0.36900
C538        C  0.50398289  0.04046600  0.58506516     0.36900
C539        C  0.53570238  0.03114119  0.54558499     0.36900
C540        C  0.41130709  0.10067930  0.57475070    -0.20600
C541        C  0.43590698  0.09686549  0.59579995    -0.20600
C542        C  0.51860542  0.04454119  0.43726090    -0.20600
C543        C  0.54394565  0.04427963  0.45769437    -0.20600
C544        C  0.38278725  0.04512367  0.47563159    -0.21600
C545        C  0.40297458  0.03493935  0.45192938    -0.21600
C546        C  0.53272768  0.03037501  0.59814607    -0.21600
C547        C  0.55303813  0.02509749  0.57300602    -0.21600
C548        C  0.39313149  0.07224116  0.52666486    -0.17000
C549        C  0.48152129  0.05928279  0.60121586    -0.17000
C550        C  0.54945122  0.03827196  0.51592126    -0.17000
C551        C  0.46031349  0.04161141  0.44499723    -0.17000
H552        H  0.39485791  0.12053779  0.57452304     0.15900
H553        H  0.44155104  0.11333483  0.61453485     0.15900
H554        H  0.51938974  0.05232785  0.41260360     0.15900
H555        H  0.56789725  0.05161869  0.45179526     0.15900
H556        H  0.35762349  0.05019475  0.47300555     0.14200
H557        H  0.39646696  0.03119752  0.42728602     0.14200
H558        H  0.53940223  0.03053556  0.62307791     0.14200
H559        H  0.57830737  0.02012271  0.57460282     0.14200
H560        H  0.44555106  0.03587963  0.55014765     0.27500
H561        H  0.48547875  0.02244367  0.50368295     0.27500
C562        C  0.19866132  0.69765334  0.53320531     0.81500
N563        N  0.16983361  0.68336614  0.53439036    -0.76800
C564        C  0.15514120  0.67419786  0.50743780     0.84000
N565        N  0.16958038  0.67865369  0.47904309    -0.76700
C566        C  0.19842748  0.69263514  0.47714988     0.84100
N567        N  0.21295231  0.70297600  0.50432582    -0.78400
C568        C  0.30910068  0.79852240  0.45484070     0.81500
N569        N  0.32600280  0.82578710  0.45140332    -0.76800
C570        C  0.33493495  0.84241925  0.47721616     0.84000
N571        N  0.32718193  0.83179749  0.50666241    -0.76700
C572        C  0.30980799  0.80509449  0.51082352     0.84100
N573        N  0.30017697  0.78840664  0.48469881    -0.78400
C574        C  0.28553122  0.22565988  0.54158739     0.81500
N575        N  0.30244988  0.19798255  0.54239026    -0.76800
C576        C  0.31239771  0.18377119  0.51527295     0.84000
N577        N  0.30506222  0.19729722  0.48675285    -0.76700
C578        C  0.28805319  0.22473919  0.48456475     0.84100
N579        N  0.27785432  0.23913990  0.51228686    -0.78400
C580        C  0.15599837  0.31460342  0.47778958     0.81500
N581        N  0.16019444  0.30730861  0.50889875    -0.76800
C582        C  0.13669805  0.31383919  0.53010639     0.84000
N583        N  0.10867848  0.32704408  0.51999976    -0.76700
C584        C  0.10417860  0.33311895  0.48834164     0.84100
N585        N  0.12802942  0.32682796  0.46776501    -0.78400
C586        C  0.80008008  0.50482350  0.31487396     0.81500
N587        N  0.78647348  0.47624823  0.30735466    -0.76800
C588        C  0.79916068  0.44865720  0.32003974     0.84000
N589        N  0.82518957  0.45033009  0.33924028    -0.76700
C590        C  0.83871842  0.47843765  0.34606024     0.84100
N591        N  0.82594116  0.50537035  0.33393385    -0.78400
C592        C  0.69292655  0.47029383  0.22306031     0.81500
N593        N  0.67826385  0.47263828  0.19437365    -0.76800
C594        C  0.67297516  0.50127929  0.18053955     0.84000
N595        N  0.68195906  0.52782529  0.19564570    -0.76700
C596        C  0.69678403  0.52615309  0.22424164     0.84100
N597        N  0.70317926  0.49715792  0.23789778    -0.78400
N598        N  0.94494880  0.44903338  0.49028140    -0.35300
N599        N  0.95182360  0.51765554  0.48023756    -0.55900
N600        N  0.95696258  0.53154112  0.54745410    -0.35300
N601        N  0.95095873  0.46238219  0.55689938    -0.55900
C602        C  0.93014682  0.45456308  0.46209805     0.28300
C603        C  0.93007469  0.42413904  0.50444171     0.28300
C604        C  0.94817862  0.56035480  0.53575016     0.28300
C605        C  0.94639165  0.52996044  0.57785607     0.28300
C606        C  0.95344523  0.50703624  0.45010065     0.36900
C607        C  0.95855538  0.54892776  0.47906321     0.36900
C608        C  0.95197864  0.43041570  0.55828293     0.36900
C609        C  0.95708662  0.47286343  0.58645191     0.36900
C610        C  0.90600935  0.43259232  0.45815059    -0.20600
C611        C  0.90598874  0.41347930  0.48470515    -0.20600
C612        C  0.93418103  0.57808171  0.55976134    -0.20600
C613        C  0.93289609  0.55880369  0.58629393    -0.20600
C614        C  0.96220655  0.53158686  0.42960338    -0.21600
C615        C  0.96472495  0.55832806  0.44793477    -0.21600
C616        C  0.95982880  0.42027415  0.58883837    -0.21600
C617        C  0.96260781  0.44726268  0.60681094    -0.21600
C618        C  0.93695507  0.47973350  0.44050821    -0.17000
C619        C  0.93667219  0.41177736  0.53534840    -0.17000
C620        C  0.94500948  0.50210676  0.59680333    -0.17000
C621        C  0.94925281  0.56979787  0.50330267    -0.17000
H622        H  0.88889404  0.43116559  0.43899308     0.15900
H623        H  0.88881536  0.39499101  0.48939331     0.15900
H624        H  0.92430911  0.60184014  0.55794780     0.15900
H625        H  0.92190025  0.56484069  0.60878695     0.15900
H626        H  0.96299149  0.53099789  0.40380968     0.14200
H627        H  0.96821063  0.58235196  0.43919209     0.14200
H628        H  0.95978866  0.39610400  0.59793597     0.14200
H629        H  0.96484271  0.44797833  0.63251278     0.14200
H630        H  0.96399429  0.46171225  0.49937985     0.27500
H631        H  0.96761162  0.51319663  0.53488313     0.27500
N632        N  0.04605642  0.55260997  0.44973583    -0.35300
N633        N  0.03447668  0.48483513  0.44535873    -0.55900
N634        N  0.02434373  0.47594618  0.51325357    -0.35300
N635        N  0.03530206  0.54386549  0.51711945    -0.55900
C636        C  0.06344186  0.54442453  0.42385003     0.28300
C637        C  0.06037378  0.57796294  0.46286565     0.28300
C638        C  0.03171827  0.44660211  0.50266194     0.28300
C639        C  0.03798845  0.47872956  0.54233409     0.28300
C640        C  0.03683506  0.49382739  0.41447894     0.36900
C641        C  0.01997684  0.45635944  0.44601510     0.36900
C642        C  0.03377186  0.57574313  0.51515257     0.36900
C643        C  0.02924831  0.53588160  0.54766354     0.36900
C644        C  0.08859625  0.56526083  0.42006176    -0.20600
C645        C  0.08670745  0.58634714  0.44459546    -0.20600
C646        C  0.04959484  0.43055636  0.52578900    -0.20600
C647        C  0.05314967  0.45064290  0.55083656    -0.20600
C648        C  0.02322587  0.47126508  0.39514024    -0.21600
C649        C  0.01161709  0.44783680  0.41524807    -0.21600
C650        C  0.02496295  0.58811982  0.54445988    -0.21600
C651        C  0.02315124  0.56275514  0.56536667    -0.21600
C652        C  0.05776374  0.51789443  0.40438328    -0.17000
C653        C  0.05132204  0.59245651  0.49190190    -0.17000
C654        C  0.03908942  0.50663476  0.56046357    -0.17000
C655        C  0.02430475  0.43494347  0.47188401    -0.17000
H656        H  0.10726865  0.56476609  0.40230365     0.15900
H657        H  0.10400418  0.60464291  0.44911428     0.15900
H658        H  0.06108824  0.40763214  0.52445557     0.15900
H659        H  0.06681325  0.44557590  0.57219372     0.15900
H660        H  0.02354371  0.47080720  0.36933966     0.14200
H661        H  0.00195532  0.42530396  0.40790723     0.14200
H662        H  0.02439604  0.61291610  0.55099025     0.14200
H663        H  0.02022943  0.56398859  0.59097417     0.14200
H664        H  0.02580607  0.54126051  0.45834969     0.27500
H665        H  0.01139162  0.49328244  0.50081796     0.27500
C666        C  0.78619905  0.30587215  0.55919505     0.81500
N667        N  0.77866879  0.29705248  0.52900277    -0.76800
C668        C  0.79895854  0.30388631  0.50451511     0.84000
N669        N  0.82707972  0.31820994  0.51076468    -0.76700
C670        C  0.83507229  0.32616647  0.54090794     0.84100
N671        N  0.81445323  0.32011915  0.56500571    -0.78400
C672        C  0.66986296  0.17918916  0.48026489     0.81500
N673        N  0.67810967  0.19310777  0.50845467    -0.76800
C674        C  0.66616835  0.18155127  0.53670094     0.84000
N675        N  0.64645099  0.15623103  0.53649065    -0.76700
C676        C  0.63886559  0.14178554  0.50894559     0.84100
N677        N  0.65055963  0.15323241  0.48090141    -0.78400
C678        C  0.80336675  0.68650224  0.04330560     0.81500
N679        N  0.79495327  0.69397185  0.01275387    -0.76800
C680        C  0.80276331  0.67387401  0.98856949     0.84000
N681        N  0.81819001  0.64609040  0.99554528    -0.76700
C682        C  0.82599272  0.63838755  0.02610199     0.84100
N683        N  0.81865029  0.65875575  0.04970880    -0.78400
C684        C  0.68662958  0.81025384  0.96744520     0.81500
N685        N  0.65907116  0.82743489  0.96830288    -0.76800
C686        C  0.64623839  0.83646543  0.99636534     0.84000
N687        N  0.66113690  0.82896734  0.02388492    -0.76700
C688        C  0.68842202  0.81172375  0.02392818     0.84100
N689        N  0.70123132  0.80189419  0.99557671    -0.78400
C690        C  0.00909589  0.69974438  0.81669975     0.81500
N691        N  0.01031649  0.67281185  0.83466285    -0.76800
C692        C  0.98339549  0.65760331  0.84316887     0.84000
N693        N  0.95483717  0.66978330  0.83440536    -0.76700
C694        C  0.95288200  0.69707866  0.81682055     0.84100
N695        N  0.98023166  0.71196873  0.80741893    -0.78400
C696        C  0.02773453  0.81996415  0.68899637     0.81500
N697        N  0.02822403  0.83928664  0.66283739    -0.76800
C698        C  0.00101596  0.84813125  0.64811754     0.84000
N699        N  0.97282724  0.83844078  0.66006864    -0.76700
C700        C  0.97160316  0.81952052  0.68650925     0.84100
N701        N  0.99926394  0.80992509  0.70099388    -0.78400
C702        C  0.67753402  0.98187972  0.82516357     0.81500
N703        N  0.69666828  0.00717117  0.81772210    -0.76800
C704        C  0.68796407  0.03702403  0.82702862     0.84000
N705        N  0.65999335  0.04145949  0.84242929    -0.76700
C706        C  0.64050029  0.01683146  0.84868808     0.84100
N707        N  0.64938097  0.98716031  0.84025458    -0.78400
C708        C  0.80723937  0.01773672  0.72084232     0.81500
N709        N  0.79775540  0.98851179  0.73210241    -0.76800
C710        C  0.80950772  0.96151435  0.71810197     0.84000
N711        N  0.82955684  0.96435619  0.69277892    -0.76700
C712        C  0.83797401  0.99316972  0.68127371     0.84100
N713        N  0.82681357  0.01952305  0.69532613    -0.78400
C714        C  0.27035405  0.20619455  0.98021506     0.81500
N715        N  0.26054785  0.21395456  0.01074110    -0.76800
C716        C  0.27774884  0.20293103  0.03687764     0.84000
N717        N  0.30410287  0.18471027  0.03172186    -0.76700
C718        C  0.31395968  0.17761024  0.00187516     0.84100
N719        N  0.29715772  0.18849521  0.97652954    -0.78400
C720        C  0.18035377  0.33236284  0.04214947     0.81500
N721        N  0.16589758  0.35911838  0.05211424    -0.76800
C722        C  0.15571835  0.38126710  0.03088533     0.84000
N723        N  0.15947322  0.37610938  0.99912122    -0.76700
C724        C  0.17419319  0.34901319  0.98912403     0.84100
N725        N  0.18494130  0.32751303  0.01088304    -0.78400
C726        C  0.68575731  0.00544384  0.19522863     0.81500
N727        N  0.65743437  0.00083102  0.18031704    -0.76800
C728        C  0.64806981  0.97123454  0.17232875     0.84000
N729        N  0.66716897  0.94608078  0.17895788    -0.76700
C730        C  0.69542045  0.95005863  0.19393059     0.84100
N731        N  0.70459751  0.97976343  0.20261049    -0.78400
C732        C  0.82751572  0.96844115  0.31129382     0.81500
N733        N  0.81426229  0.99652707  0.30084504    -0.76800
C734        C  0.82182749  0.02426778  0.31572121     0.84000
N735        N  0.84181223  0.02340595  0.34124283    -0.76700
C736        C  0.85471769  0.99563263  0.35150332     0.84100
N737        N  0.84770626  0.96850574  0.33642766    -0.78400
N738        N  0.43738754  0.05219085  0.94353571    -0.35300
N739        N  0.44693416  0.05992768  0.01218342    -0.55900
N740        N  0.45626549  0.99357404  0.02556367    -0.35300
N741        N  0.44809185  0.98591367  0.95700199    -0.55900
C742        C  0.41895497  0.07775554  0.95033534     0.28300
C743        C  0.42368225  0.03741437  0.91864901     0.28300
C744        C  0.44790904  0.00556989  0.05410245     0.28300
C745        C  0.44292199  0.96452901  0.02380430     0.28300
C746        C  0.44445608  0.08999277  0.00114177     0.36900
C747        C  0.45904445  0.06147849  0.04187033     0.36900
C748        C  0.45070459  0.98577444  0.92503075     0.36900
C749        C  0.45421508  0.95612513  0.96728907     0.36900
C750        C  0.39398129  0.07998173  0.92887097    -0.20600
C751        C  0.39689917  0.05456211  0.90889056    -0.20600
C752        C  0.42979666  0.98342124  0.07086404    -0.20600
C753        C  0.42687831  0.95751553  0.05184987    -0.20600
C754        C  0.45562595  0.11094872  0.02365165    -0.21600
C755        C  0.46557922  0.09277467  0.04933602    -0.21600
C756        C  0.46018414  0.95587084  0.91493561    -0.21600
C757        C  0.46144737  0.93680539  0.94180160    -0.21600
C758        C  0.42336943  0.09810973  0.97643031    -0.17000
C759        C  0.43355666  0.00773848  0.90611762    -0.17000
C760        C  0.44280972  0.94516948  0.99670765    -0.17000
C761        C  0.45458338  0.03675961  0.06434709    -0.17000
H762        H  0.37491116  0.09739251  0.92833909     0.15900
H763        H  0.37998962  0.04867780  0.89049242     0.15900
H764        H  0.41791438  0.98601779  0.09352968     0.15900
H765        H  0.41317738  0.93652854  0.05756999     0.15900
H766        H  0.45416954  0.13661911  0.02265525     0.14200
H767        H  0.47316455  0.10169509  0.07219303     0.14200
H768        H  0.46156492  0.94771774  0.89058336     0.14200
H769        H  0.46453773  0.91125923  0.94237065     0.14200
H770        H  0.45783416  0.04475721  0.95564997     0.27500
H771        H  0.46958637  0.00511589  0.00797144     0.27500
N772        N  0.52621486  0.96748727  0.97195464    -0.35300
N773        N  0.52753661  0.95525913  0.04125776    -0.55900
N774        N  0.52959146  0.02218133  0.05671667    -0.35300
N775        N  0.52931873  0.03450512  0.98749248    -0.55900
C776        C  0.53532472  0.93663320  0.97299952     0.28300
C777        C  0.53664597  0.97964608  0.94379570     0.28300
C778        C  0.54038438  0.00916043  0.08439511     0.28300
C779        C  0.54029720  0.05237655  0.05560448     0.28300
C780        C  0.52374048  0.92564109  0.03014934     0.36900
C781        C  0.52623089  0.95321129  0.07333706     0.36900
C782        C  0.52652693  0.03662301  0.95546575     0.36900
C783        C  0.52822283  0.06443427  0.99856908     0.36900
C784        C  0.54944452  0.92846005  0.94438652    -0.20600
C785        C  0.55059905  0.95548094  0.92614245    -0.20600
C786        C  0.55598754  0.03219103  0.10184500    -0.20600
C787        C  0.55567801  0.05936193  0.08386537    -0.20600
C788        C  0.51959355  0.90455047  0.05541257    -0.21600
C789        C  0.52115468  0.92204782  0.08281976    -0.21600
C790        C  0.52314058  0.06816389  0.94613803    -0.21600
C791        C  0.52439042  0.08578843  0.97345835    -0.21600
C792        C  0.53540584  0.91652057  0.00021948    -0.17000
C793        C  0.53665327  0.01230451  0.93485040    -0.17000
C794        C  0.54008383  0.07286214  0.02867926    -0.17000
C795        C  0.53908893  0.97656072  0.09321848    -0.17000
H796        H  0.55968735  0.90572655  0.93805138     0.15900
H797        H  0.56213651  0.95685312  0.90318702     0.15900
H798        H  0.56782440  0.02984044  0.12459089     0.15900
H799        H  0.56715823  0.08131351  0.09027827     0.15900
H800        H  0.51889706  0.87889367  0.05422813     0.14200
H801        H  0.52168761  0.91260702  0.10694450     0.14200
H802        H  0.52288637  0.07753001  0.92198045     0.14200
H803        H  0.52518329  0.11144566  0.97460090     0.14200
H804        H  0.51531673  0.97989217  0.99033841     0.27500
H805        H  0.51743941  0.01071773  0.03871384     0.27500
C806        C  0.69020139  0.18089300  0.05896992     0.81500
N807        N  0.70138265  0.19093344  0.02981169    -0.76800
C808        C  0.68541101  0.18251990  0.00270894     0.84000
N809        N  0.65857716  0.16517967  0.00513496    -0.76700
C810        C  0.64699193  0.15617212  0.03372487     0.84100
N811        N  0.66281398  0.16380517  0.06060530    -0.78400
C812        C  0.79271410  0.29479510  0.98040659     0.81500
N813        N  0.79036310  0.27956257  0.00933433    -0.76800
C814        C  0.80125857  0.29427586  0.03615608     0.84000
N815        N  0.81312209  0.32402605  0.03379694    -0.76700
C816        C  0.81485215  0.33923285  0.00536575     0.84100
N817        N  0.80502146  0.32447200  0.97877896    -0.78400
C818        C  0.34719437  0.98100922  0.19129144     0.81500
N819        N  0.37372906  0.99087394  0.17535881    -0.76800
C820        C  0.37800759  0.02246338  0.16950820     0.84000
N821        N  0.35558826  0.04337715  0.17889891    -0.76700
C822        C  0.32906588  0.03363478  0.19399534     0.84100
N823        N  0.32500895  0.00255680  0.20070514    -0.78400
C824        C  0.19974374  0.02840964  0.28695407     0.81500
N825        N  0.18273609  0.02500516  0.31435626    -0.76800
C826        C  0.17546498  0.99596391  0.32646127     0.84000
N827        N  0.18525506  0.96962755  0.31088247    -0.76700
C828        C  0.20190029  0.97164174  0.28312821     0.84100
N829        N  0.20967271  0.00140156  0.27110277    -0.78400
C830        C  0.98364975  0.70801815  0.18287074     0.81500
N831        N  0.98517895  0.68290193  0.16309691    -0.76800
C832        C  0.01342895  0.67060611  0.15410818     0.84000
N833        N  0.04069052  0.68384084  0.16448093    -0.76700
C834        C  0.04002772  0.70962516  0.18369915     0.84100
N835        N  0.01125088  0.72129683  0.19387520    -0.78400
C836        C  0.96545809  0.79760903  0.29488382     0.81500
N837        N  0.96265925  0.81087105  0.32418717    -0.76800
C838        C  0.98875560  0.82132454  0.33968059     0.84000
N839        N  0.01756475  0.81908459  0.32567069    -0.76700
C840        C  0.02085294  0.80617800  0.29649105     0.84100
N841        N  0.99475836  0.79473105  0.28108975    -0.78400
N842        N  0.93721069  0.44292942  0.06621761    -0.35300
N843        N  0.00472104  0.45526630  0.07280487    -0.55900
N844        N  0.01472268  0.46986663  0.00570143    -0.35300
N845        N  0.94675907  0.45813227  0.99963373    -0.55900
C846        C  0.94544174  0.42364939  0.09100442     0.28300
C847        C  0.91212795  0.42937869  0.05164146     0.28300
C848        C  0.04434981  0.46247371  0.01611110     0.28300
C849        C  0.01258593  0.45941924  0.97533452     0.28300
C850        C  0.99597650  0.44958914  0.10329113     0.36900
C851        C  0.03372839  0.46876324  0.07364440     0.36900
C852        C  0.91477338  0.45926149  0.00092536     0.36900
C853        C  0.95506636  0.46689160  0.96981448     0.36900
C854        C  0.92475764  0.39820099  0.09287024    -0.20600
C855        C  0.90377848  0.40174165  0.06803158    -0.20600
C856        C  0.06142655  0.44859488  0.99135558    -0.20600
C857        C  0.04147354  0.44686562  0.96576703    -0.20600
C858        C  0.01922045  0.46006750  0.12392251    -0.21600
C859        C  0.04294137  0.47287969  0.10513698    -0.21600
C860        C  0.90262682  0.47021618  0.97200236    -0.21600
C861        C  0.92828101  0.47417572  0.95196088    -0.21600
C862        C  0.97181410  0.42796149  0.11127015    -0.17000
C863        C  0.89775983  0.44050695  0.02298754    -0.17000
C864        C  0.98458706  0.45841261  0.95690791    -0.17000
C865        C  0.05529497  0.46556830  0.04801983    -0.17000
H866        H  0.92528617  0.37852356  0.10971983     0.15900
H867        H  0.88547128  0.38488638  0.06205503     0.15900
H868        H  0.08511563  0.43860636  0.99159008     0.15900
H869        H  0.04727990  0.43613021  0.94316309     0.15900
H870        H  0.02005948  0.45652243  0.14952057     0.14200
H871        H  0.06604620  0.48045029  0.11343940     0.14200
H872        H  0.87785133  0.47118366  0.96494900     0.14200
H873        H  0.92733760  0.47929696  0.92661778     0.14200
H874        H  0.94820280  0.46405423  0.05931665     0.27500
H875        H  0.99667142  0.48024327  0.01916273     0.27500
N876        N  0.95934735  0.53914745  0.97816469    -0.35300
N877        N  0.97636388  0.54195825  0.04402136    -0.55900
N878        N  0.04596726  0.54345916  0.03167297    -0.35300
N879        N  0.02854093  0.54003139  0.96562562    -0.55900
C880        C  0.93182804  0.54973323  0.99128226     0.28300
C881        C  0.96059780  0.55107103  0.94812942     0.28300
C882        C  0.04352687  0.55793111  0.06017728     0.28300
C883        C  0.07241309  0.55498572  0.01719813     0.28300
C884        C  0.94497849  0.53609129  0.04710317     0.36900
C885        C  0.98900766  0.54045500  0.07349044     0.36900
C886        C  0.01625584  0.53584862  0.93633337     0.36900
C887        C  0.06031119  0.53589503  0.96316325     0.36900
C888        C  0.91496697  0.56742180  0.96864460    -0.20600
C889        C  0.93299439  0.56806251  0.94149097    -0.20600
C890        C  0.06954922  0.57738148  0.06473794    -0.20600
C891        C  0.08762151  0.57571882  0.03770238    -0.20600
C892        C  0.93764337  0.53004100  0.07882117    -0.21600
C893        C  0.96556745  0.53319293  0.09560119    -0.21600
C894        C  0.04036265  0.52867167  0.91500308    -0.21600
C895        C  0.06828733  0.52817618  0.93210980    -0.21600
C896        C  0.92271508  0.54568016  0.02369052    -0.17000
C897        C  0.98696877  0.54939836  0.92732139    -0.17000
C898        C  0.08157111  0.54938052  0.98509767    -0.17000
C899        C  0.01713686  0.55647595  0.08099753    -0.17000
H900        H  0.89280130  0.58022367  0.97141339     0.15900
H901        H  0.92700714  0.58083651  0.91973021     0.15900
H902        H  0.07431151  0.59254358  0.08481956     0.15900
H903        H  0.10849688  0.58995770  0.03344723     0.15900
H904        H  0.91416179  0.52709305  0.08904017     0.14200
H905        H  0.96788305  0.53326609  0.12131259     0.14200
H906        H  0.03832074  0.52718467  0.88932942     0.14200
H907        H  0.09201025  0.52630399  0.92217805     0.14200
H908        H  0.97687518  0.52547936  0.98931551     0.27500
H909        H  0.02956820  0.52787439  0.02213090     0.27500
C910        C  0.30024758  0.82981229  0.03283424     0.81500
N911        N  0.32558951  0.84969836  0.03151468    -0.76800
C912        C  0.33588204  0.86175484  0.00343521     0.84000
N913        N  0.32083133  0.85415213  0.97628712    -0.76700
C914        C  0.29574751  0.83415793  0.97653544     0.84100
N915        N  0.28538617  0.82157400  0.00502232    -0.78400
C916        C  0.17875519  0.70368041  0.95397537     0.81500
N917        N  0.18713073  0.71237501  0.98401784    -0.76800
C918        C  0.18194120  0.69203213  0.00911484     0.84000
N919        N  0.16974744  0.66278403  0.00365909    -0.76700
C920        C  0.16217291  0.65383193  0.97371094     0.84100
N921        N  0.16643946  0.67442943  0.94914241    -0.78400
C922        C  0.02404414  0.27782450  0.21487219     0.81500
N923        N  0.01979334  0.30520818  0.19794423    -0.76800
C924        C  0.99055662  0.31750035  0.19214673     0.84000
N925        N  0.96453287  0.30193347  0.20293529    -0.76700
C926        C  0.96721782  0.27393477  0.21923340     0.84100
N927        N  0.99736700  0.26171898  0.22571923    -0.78400
C928        C  0.02940560  0.18173507  0.33965066     0.81500
N929        N  0.03910416  0.17093265  0.36839887    -0.76800
C930        C  0.01800422  0.16397994  0.39166926     0.84000
N931        N  0.98634906  0.16796210  0.38573426    -0.76700
C932        C  0.97636950  0.17943439  0.35679894     0.84100
N933        N  0.99818219  0.18656219  0.33398199    -0.78400
C934        C  0.96213930  0.31857611  0.83714747     0.81500
N935        N  0.96249394  0.34383957  0.85682195    -0.76800
C936        C  0.99014838  0.35704866  0.86597208     0.84000
N937        N  0.01812655  0.34445313  0.85591670    -0.76700
C938        C  0.01868124  0.31870290  0.83648107     0.84100
N939        N  0.99040794  0.30588676  0.82670108    -0.78400
C940        C  0.94212607  0.18536002  0.73236640     0.81500
N941        N  0.97175635  0.19471866  0.74158193    -0.76800
C942        C  0.99794646  0.18347151  0.72585132     0.84000
N943        N  0.99400615  0.16411226  0.70056961    -0.76700
C944        C  0.96460014  0.15580405  0.69082180     0.84100
N945        N  0.93875632  0.16663345  0.70655451    -0.78400
N946        N  0.05050676  0.94147916  0.44958867    -0.35300
N947        N  0.98383286  0.95126181  0.46046516    -0.55900
N948        N  0.98872977  0.01995425  0.47177500    -0.35300
N949        N  0.05551669  0.01023528  0.46052684    -0.55900
C950        C  0.03741679  0.91585468  0.43558879     0.28300
C951        C  0.07660712  0.94940763  0.43232550     0.28300
C952        C  0.95988826  0.01716215  0.45782181     0.28300
C953        C  0.99951463  0.04932902  0.46424503     0.28300
C954        C  0.98476949  0.91929335  0.46128661     0.36900
C955        C  0.95362473  0.95988392  0.46682177     0.36900
C956        C  0.08605778  0.00050138  0.45825671     0.36900
C957        C  0.05579761  0.03874036  0.47494213     0.36900
C958        C  0.05638750  0.90654496  0.41015631    -0.20600
C959        C  0.08097603  0.92773034  0.40805705    -0.20600
C960        C  0.95158239  0.04537927  0.44260287    -0.20600
C961        C  0.97663254  0.06551084  0.44627624    -0.20600
C962        C  0.95511751  0.90746061  0.46968756    -0.21600
C963        C  0.93513583  0.93328729  0.47226214    -0.21600
C964        C  0.10603318  0.02265419  0.47167403    -0.21600
C965        C  0.08673298  0.04654155  0.48319729    -0.21600
C966        C  0.00759243  0.90226982  0.44369240    -0.17000
C967        C  0.09561771  0.97653825  0.43715854    -0.17000
C968        C  0.03045302  0.06067964  0.47115921    -0.17000
C969        C  0.94154467  0.98929910  0.45669833    -0.17000
H970        H  0.05226199  0.88756336  0.39354758     0.15900
H971        H  0.09920628  0.92769226  0.38983521     0.15900
H972        H  0.93020969  0.05054595  0.42904161     0.15900
H973        H  0.97811130  0.08861688  0.43498517     0.15900
H974        H  0.94779226  0.88285627  0.46964113     0.14200
H975        H  0.90952657  0.93260727  0.47503958     0.14200
H976        H  0.13179515  0.02252548  0.47126835     0.14200
H977        H  0.09471734  0.06884588  0.49285387     0.14200
H978        H  0.04162907  0.95343120  0.46934170     0.27500
H979        H  0.00087315  0.00248830  0.48481481     0.27500
N980        N  0.92591599  0.05609960  0.57339329    -0.35300
N981        N  0.94865127  0.97923297  0.54096135    -0.55900
N982        N  0.01614209  0.99393359  0.54635204    -0.35300
N983        N  0.00833095  0.06296536  0.54973703    -0.55900
C984        C  0.91381132  0.03545411  0.55234353     0.28300
C985        C  0.94288843  0.07714202  0.55601026     0.28300
C986        C  0.01689377  0.96218269  0.54131536     0.28300
C987        C  0.04673497  0.00391999  0.54594100     0.28300
C988        C  0.91729653  0.97871277  0.54804475     0.36900
C989        C  0.95924910  0.94918592  0.54433556     0.36900
C990        C  0.99799348  0.09166390  0.55967442     0.36900
C991        C  0.03969869  0.06169866  0.55624723     0.36900
C992        C  0.92105482  0.04465848  0.52154813    -0.20600
C993        C  0.93972014  0.07114084  0.52383615    -0.20600
C994        C  0.04801949  0.95221226  0.53679798    -0.20600
C995        C  0.06686378  0.97857276  0.53967108    -0.20600
C996        C  0.90732751  0.94786217  0.55346201    -0.21600
C997        C  0.93402638  0.92908006  0.55134644    -0.21600
C998        C  0.02325533  0.10953623  0.57044804    -0.21600
C999        C  0.04974754  0.09050546  0.56832010    -0.21600
C1000       C  0.90238308  0.00553059  0.56103077    -0.17000
C1001       C  0.96622206  0.09651438  0.56907101    -0.17000
C1002       C  0.05755032  0.03324718  0.55769537    -0.17000
C1003       C  0.99166481  0.94102426  0.54770233    -0.17000
H1004       H  0.91462810  0.03248564  0.50005771     0.15900
H1005       H  0.95093359  0.08360840  0.50431682     0.15900
H1006       H  0.05630905  0.92802515  0.53383066     0.15900
H1007       H  0.09263073  0.97883160  0.53933258     0.15900
H1008       H  0.88423651  0.94033843  0.56206135     0.14200
H1009       H  0.93505349  0.90397141  0.55699135     0.14200
H1010       H  0.02202357  0.13238745  0.58197435     0.14200
H1011       H  0.07310305  0.09634162  0.57725962     0.14200
H1012       H  0.92629245  0.05336031  0.59820274     0.27500
H1013       H  0.99654779  0.00708810  0.55388440     0.27500
C1014       C  0.28619532  0.02887601  0.81460995     0.81500
N1015       N  0.31604630  0.02417377  0.82584656    -0.76800
C1016       C  0.32890823  0.99474755  0.82737206     0.84000
N1017       N  0.31164119  0.96953326  0.81821099    -0.76700
C1018       C  0.28174661  0.97351872  0.80665672     0.84100
N1019       N  0.26900342  0.00347078  0.80408764    -0.78400
C1020       C  0.17593426  0.99688635  0.69856943     0.81500
N1021       N  0.18549700  0.02391301  0.71395969    -0.76800
C1022       C  0.17372453  0.05296921  0.70406228     0.84000
N1023       N  0.15356899  0.05431525  0.67866549    -0.76700
C1024       C  0.14466785  0.02775078  0.66342686     0.84100
N1025       N  0.15556871  0.99926810  0.67364668    -0.78400
O1026       O  0.19910630  0.24616058  0.35436879    -0.86900
C1027       C  0.29503101  0.15121121  0.23958737     1.13200
O1028       O  0.22055180  0.25154575  0.28562672    -1.34700
O1029       O  0.32406309  0.20654754  0.30862265    -0.88400
O1030       O  0.19625257  0.29603515  0.33614232    -0.89000
O1031       O  0.25883892  0.32140172  0.29401952    -0.77800
O1032       O  0.25948842  0.21995522  0.33182439    -0.99900
C1033       C  0.33305517  0.27915786  0.25093747     1.23200
O1034       O  0.24827580  0.27748870  0.23310007    -1.34800
Mn1035     Mn  0.22819818  0.23081977  0.23941870     1.82100
O1036       O  0.31642468  0.28765922  0.27462946    -0.76900
O1037       O  0.34472694  0.20822317  0.25962818    -0.86300
C1038       C  0.26148354  0.22328981  0.17569842     1.14300
C1039       C  0.34738537  0.21009856  0.28972142     1.09000
O1040       O  0.17982215  0.23695401  0.22274307    -0.77900
O1041       O  0.27435315  0.22538305  0.26154716    -1.31500
O1042       O  0.17749747  0.28244628  0.24332276    -0.97100
C1043       C  0.27152136  0.35154033  0.21113300     1.07700
Mn1044     Mn  0.30989099  0.22060080  0.22623412     1.48600
O1045       O  0.24180924  0.34650021  0.21224033    -0.86300
Mn1046     Mn  0.18546972  0.28763268  0.28862307     1.49600
O1047       O  0.16913341  0.20650742  0.30448120    -0.90100
C1048       C  0.27168831  0.24195493  0.34635514     1.20900
C1049       C  0.14609114  0.22592198  0.30150936     1.13000
Mn1050     Mn  0.26733367  0.27241065  0.28063802     1.81000
O1051       O  0.28279744  0.23656807  0.19047794    -0.95300
Mn1052     Mn  0.21497372  0.21484054  0.31990211     1.49300
C1053       C  0.19729360  0.27584007  0.35890017     1.09500
Mn1054     Mn  0.28580073  0.28194784  0.19978856     1.49900
C1055       C  0.22569970  0.29337145  0.15806291     1.12400
O1056       O  0.21360223  0.32170572  0.27166226    -1.01100
O1057       O  0.29775931  0.17374344  0.21942870    -0.90800
C1058       C  0.23448723  0.33698234  0.28487947     1.23700
O1059       O  0.31866745  0.26578191  0.22960658    -1.01500
O1060       O  0.29406364  0.15563280  0.26945591    -0.88900
O1061       O  0.25545202  0.29446447  0.16283956    -0.88500
O1062       O  0.14975262  0.25583942  0.30143435    -0.88500
Mn1063     Mn  0.27823869  0.19165632  0.29926732     1.47900
O1064       O  0.23702591  0.21551623  0.19147976    -0.77000
C1065       C  0.16321328  0.26083026  0.23035037     1.16700
O1066       O  0.28059376  0.26568476  0.32985959    -0.75700
O1067       O  0.21354462  0.18256634  0.24685590    -0.75300
Mn1068     Mn  0.21105436  0.31070028  0.22654634     1.51100
O1069       O  0.29210188  0.32926638  0.21161314    -0.87700
O1070       O  0.23345826  0.18050688  0.29334845    -0.95200
O1071       O  0.20528840  0.29576608  0.18023377    -0.90200
C1072       C  0.22123031  0.16616719  0.27112106     1.14500
C1073       C  0.07222536  0.01703365  0.61273978     0.24900
C1074       C  0.08166594  0.03079411  0.58349624    -0.23200
C1075       C  0.11219161  0.04392470  0.58067064     0.19800
C1076       C  0.13276895  0.04356694  0.60702954     0.24800
C1077       C  0.12314332  0.02946639  0.63601979    -0.23100
C1078       C  0.09298410  0.01582730  0.63855194     0.19700
F1079       F  0.08330732  0.00215110  0.66639523    -0.13100
F1080       F  0.04228841  0.00575808  0.61659300    -0.15500
F1081       F  0.16218194  0.05647123  0.60421586    -0.15500
F1082       F  0.12167470  0.05756880  0.55280025    -0.13100
C1083       C  0.94513825  0.15303460  0.63503433     0.24900
C1084       C  0.96095992  0.13860973  0.66101647    -0.23200
C1085       C  0.97593768  0.10909368  0.65737249     0.19800
C1086       C  0.97564803  0.09429255  0.62785611     0.24800
C1087       C  0.96124293  0.10941997  0.60133493    -0.23100
C1088       C  0.94540224  0.13850866  0.60522157     0.19700
F1089       F  0.93192931  0.15363932  0.57978360    -0.13100
F1090       F  0.93150114  0.18219287  0.63801275    -0.15500
F1091       F  0.99076974  0.06588184  0.62468726    -0.15500
F1092       F  0.99151924  0.09505736  0.68223003    -0.13100
C1093       C  0.08714457  0.23455284  0.30195386     0.24900
C1094       C  0.11342290  0.21351761  0.30026015    -0.23200
C1095       C  0.10802474  0.18052526  0.30143018     0.19800
C1096       C  0.07816421  0.16925193  0.31008571     0.24800
C1097       C  0.05347707  0.19077031  0.31659418    -0.23100
C1098       C  0.05721050  0.22305994  0.30983573     0.19700
F1099       F  0.03328047  0.24399060  0.31591746    -0.13100
F1100       F  0.09077293  0.26650038  0.29963589    -0.15500
F1101       F  0.07430177  0.13766092  0.31571798    -0.15500
F1102       F  0.13210370  0.15924841  0.29733396    -0.13100
C1103       C  0.05948829  0.09975186  0.43643610     0.24900
C1104       C  0.03784358  0.09428912  0.46160427    -0.23200
C1105       C  0.01691534  0.11927756  0.46988376     0.19800
C1106       C  0.01152839  0.14439925  0.44825793     0.24800
C1107       C  0.02947241  0.14627101  0.42005482    -0.23100
C1108       C  0.05619122  0.12624607  0.41682870     0.19700
F1109       F  0.07647591  0.12899567  0.39171239    -0.13100
F1110       F  0.08076576  0.07742584  0.42708735    -0.15500
F1111       F  0.98704920  0.16493418  0.45341715    -0.15500
F1112       F  0.99752816  0.11639306  0.49549656    -0.13100
C1113       C  0.07367766  0.24062420  0.21562492     0.24900
C1114       C  0.05842360  0.26968994  0.22306199    -0.23200
C1115       C  0.07814954  0.29488775  0.23260027     0.19800
C1116       C  0.11143666  0.29191612  0.23377663     0.24800
C1117       C  0.12713532  0.26317397  0.22626350    -0.23100
C1118       C  0.10754479  0.23734196  0.21738677     0.19700
F1119       F  0.12107046  0.20896238  0.21015388    -0.13100
F1120       F  0.05607879  0.21583835  0.20539302    -0.15500
F1121       F  0.12831729  0.31790283  0.24219640    -0.15500
F1122       F  0.06502602  0.32333632  0.24039477    -0.13100
C1123       C  0.09955738  0.59549734  0.95206184     0.24900
C1124       C  0.10782044  0.56939204  0.97186186    -0.23200
C1125       C  0.13849941  0.56822836  0.98533017     0.19800
C1126       C  0.15774188  0.59529910  0.98427424     0.24800
C1127       C  0.14709360  0.62294711  0.96828673    -0.23100
C1128       C  0.11923934  0.62187262  0.95001704     0.19700
F1129       F  0.10893888  0.64786735  0.93341052    -0.13100
F1130       F  0.07060621  0.59742461  0.93788492    -0.15500
F1131       F  0.18563311  0.59526938  0.00062667    -0.15500
F1132       F  0.14771308  0.54286751  0.00341931    -0.13100
C1133       C  0.97693056  0.37822616  0.91898860     0.24900
C1134       C  0.98921738  0.38359592  0.88837798    -0.23200
C1135       C  0.99869600  0.41439881  0.87925846     0.19800
C1136       C  0.99574048  0.43962071  0.90076155     0.24800
C1137       C  0.98382211  0.43398244  0.93162640    -0.23100
C1138       C  0.97491237  0.40296919  0.94060322     0.19700
F1139       F  0.96574905  0.39634734  0.97101776    -0.13100
F1140       F  0.96780685  0.34863994  0.92829390    -0.15500
F1141       F  0.00520211  0.46916355  0.89186535    -0.15500
F1142       F  0.01037701  0.42002808  0.84954552    -0.13100
C1143       C  0.99870531  0.37657215  0.12441914     0.24900
C1144       C  0.97946720  0.40200620  0.13454833    -0.23200
C1145       C  0.96424334  0.39985503  0.16433895     0.19800
C1146       C  0.96792455  0.37241119  0.18344952     0.24800
C1147       C  0.98732553  0.34711211  0.17316819    -0.23100
C1148       C  0.00329031  0.34981427  0.14387499     0.19700
F1149       F  0.02178505  0.32559182  0.13314969    -0.13100
F1150       F  0.01101836  0.37655687  0.09451167    -0.15500
F1151       F  0.95266804  0.37053598  0.21195950    -0.15500
F1152       F  0.94496333  0.42376110  0.17427625    -0.13100
C1153       C  0.01195861  0.84718168  0.42164289     0.24900
C1154       C  0.99573069  0.87638595  0.42300520    -0.23200
C1155       C  0.97227986  0.88360623  0.39984438     0.19800
C1156       C  0.96735456  0.86343978  0.37426835     0.24800
C1157       C  0.98643949  0.83635855  0.37090137    -0.23100
C1158       C  0.00779127  0.82754026  0.39533856     0.19700
F1159       F  0.02623396  0.80110732  0.39251189    -0.13100
F1160       F  0.03433951  0.83952908  0.44383638    -0.15500
F1161       F  0.94679386  0.87246351  0.35080820    -0.15500
F1162       F  0.95651398  0.91183108  0.39996405    -0.13100
C1163       C  0.02735511  0.61319555  0.14956424     0.24900
C1164       C  0.01403646  0.64104882  0.13613483    -0.23200
C1165       C  0.99955247  0.64011149  0.10613650     0.19800
C1166       C  0.99965316  0.61201537  0.08901186     0.24800
C1167       C  0.01321077  0.58411634  0.10214670    -0.23100
C1168       C  0.02675087  0.58469575  0.13266906     0.19700
F1169       F  0.04009904  0.55803495  0.14551593    -0.13100
F1170       F  0.04047209  0.61359349  0.17914009    -0.15500
F1171       F  0.98809919  0.61235816  0.05875674    -0.15500
F1172       F  0.98637662  0.66673518  0.09295736    -0.13100
C1173       C  0.19630004  0.07929366  0.25249109     0.24900
C1174       C  0.20965773  0.06196024  0.27832473    -0.23200
C1175       C  0.22694014  0.07925529  0.30102611     0.19800
C1176       C  0.23039877  0.11247992  0.29859388     0.24800
C1177       C  0.21687859  0.13020238  0.27305365    -0.23100
C1178       C  0.20012985  0.11282122  0.24968943     0.19700
F1179       F  0.18637163  0.12834493  0.22465662    -0.13100
F1180       F  0.17801002  0.06410454  0.23088067    -0.15500
F1181       F  0.24708049  0.12726526  0.32176585    -0.15500
F1182       F  0.23982582  0.06385945  0.32662145    -0.13100
C1183       C  0.14719796  0.96644014  0.40775030     0.24900
C1184       C  0.11954372  0.98486620  0.41209755    -0.23200
C1185       C  0.11161017  0.00816143  0.38899126     0.19800
C1186       C  0.13055283  0.01260834  0.36188067     0.24800
C1187       C  0.15723962  0.99306168  0.35664521    -0.23100
C1188       C  0.16564060  0.97016743  0.38001622     0.19700
F1189       F  0.19155502  0.95121953  0.37585966    -0.13100
F1190       F  0.15529431  0.94370255  0.42954526    -0.15500
F1191       F  0.12147868  0.03457269  0.33963962    -0.15500
F1192       F  0.08405871  0.02497600  0.39143085    -0.13100
C1193       C  0.30417610  0.06215992  0.23795214     0.24900
C1194       C  0.30707941  0.05775501  0.20511310    -0.23200
C1195       C  0.29855042  0.08221330  0.18379220     0.19800
C1196       C  0.29203641  0.11241159  0.19514936     0.24800
C1197       C  0.29427283  0.11833332  0.22805811    -0.23100
C1198       C  0.29817499  0.09245007  0.24951573     0.19700
F1199       F  0.29960694  0.09672189  0.28152085    -0.13100
F1200       F  0.31187823  0.03836485  0.25877148    -0.15500
F1201       F  0.28622777  0.13617988  0.17369064    -0.15500
F1202       F  0.30030973  0.07769557  0.15180575    -0.13100
C1203       C  0.84246482  0.41990958  0.02964741     0.24900
C1204       C  0.87019489  0.42225827  0.01106705    -0.23200
C1205       C  0.87506321  0.40079853  0.98591740     0.19800
C1206       C  0.85457408  0.37540670  0.98184429     0.24800
C1207       C  0.82962037  0.37053182  0.00342734    -0.23100
C1208       C  0.82258991  0.39368884  0.02631210     0.19700
F1209       F  0.79794094  0.38964868  0.04690325    -0.13100
F1210       F  0.83711813  0.44058780  0.05370563    -0.15500
F1211       F  0.86168304  0.35336575  0.95948409    -0.15500
F1212       F  0.90177724  0.40189853  0.96777635    -0.13100
C1213       C  0.58911066  0.14656078  0.04409276     0.24900
C1214       C  0.61926839  0.13550984  0.03448776    -0.23200
C1215       C  0.62265829  0.10502848  0.02206260     0.19800
C1216       C  0.59637356  0.08553158  0.01938233     0.24800
C1217       C  0.56598206  0.09648233  0.02820917    -0.23100
C1218       C  0.56237921  0.12700107  0.04091915     0.19700
F1219       F  0.53341517  0.13726147  0.05099526    -0.13100
F1220       F  0.58560614  0.17620214  0.05604682    -0.15500
F1221       F  0.60075805  0.05511690  0.00982048    -0.15500
F1222       F  0.65170601  0.09397513  0.01299414    -0.13100
C1223       C  0.39145525  0.97184870  0.88577680     0.24900
C1224       C  0.41461550  0.99519210  0.87920453    -0.23200
C1225       C  0.41295119  0.01247614  0.85040143     0.19800
C1226       C  0.38561095  0.01065455  0.83158372     0.24800
C1227       C  0.36070044  0.99036279  0.84074359    -0.23100
C1228       C  0.36478216  0.96933110  0.86646609     0.19700
F1229       F  0.34098343  0.94946892  0.87556281    -0.13100
F1230       F  0.39224936  0.95435107  0.91309744    -0.15500
F1231       F  0.38224141  0.03057300  0.80607973    -0.15500
F1232       F  0.43546901  0.03439968  0.84315301    -0.13100
C1233       C  0.36046070  0.91256573  0.98783653     0.24900
C1234       C  0.36363872  0.88240447  0.00185481    -0.23200
C1235       C  0.39355692  0.87179878  0.01280144     0.19800
C1236       C  0.42028904  0.89125676  0.00927562     0.24800
C1237       C  0.41696025  0.92158752  0.99543560    -0.23100
C1238       C  0.38675414  0.93226192  0.98526945     0.19700
F1239       F  0.38239985  0.96264972  0.97483133    -0.13100
F1240       F  0.33153381  0.92346927  0.97798667    -0.15500
F1241       F  0.44899614  0.88119421  0.02043991    -0.15500
F1242       F  0.39681624  0.84262608  0.02660556    -0.13100
C1243       C  0.39700672  0.05864115  0.12677594     0.24900
C1244       C  0.40380153  0.03419421  0.14896664    -0.23200
C1245       C  0.43379425  0.01940254  0.14845998     0.19800
C1246       C  0.45458142  0.02545466  0.12306901     0.24800
C1247       C  0.44452748  0.04485073  0.09729886    -0.23100
C1248       C  0.41696891  0.06365021  0.10094241     0.19700
F1249       F  0.40626749  0.08308994  0.07719930    -0.13100
F1250       F  0.36888006  0.07476114  0.12727825    -0.15500
F1251       F  0.48134598  0.00759277  0.12057234    -0.15500
F1252       F  0.44173443  0.99711854  0.17078507    -0.13100
C1253       C  0.88541902  0.99570185  0.43607296     0.24900
C1254       C  0.91760164  0.98826706  0.43091536    -0.23200
C1255       C  0.92878738  0.98364829  0.39966615     0.19800
C1256       C  0.90817313  0.98636996  0.37387400     0.24800
C1257       C  0.87621072  0.99438008  0.37883486    -0.23100
C1258       C  0.86474398  0.99888930  0.40997755     0.19700
F1259       F  0.83356474  0.00591240  0.41499818    -0.13100
F1260       F  0.87427492  0.00027180  0.46606244    -0.15500
F1261       F  0.91956673  0.98201169  0.34390558    -0.15500
F1262       F  0.96017191  0.97790658  0.39415474    -0.13100
C1263       C  0.61960414  0.95437133  0.12401607     0.24900
C1264       C  0.61825522  0.96649431  0.15490538    -0.23200
C1265       C  0.58871843  0.97541879  0.16795073     0.19800
C1266       C  0.56106521  0.97434824  0.14925033     0.24800
C1267       C  0.56319287  0.96568644  0.11702629    -0.23100
C1268       C  0.59235281  0.95407672  0.10518349     0.19700
F1269       F  0.59522954  0.94567694  0.07419210    -0.13100
F1270       F  0.64793340  0.94565781  0.11102062    -0.15500
F1271       F  0.53311841  0.98526612  0.16129313    -0.15500
F1272       F  0.58696295  0.98648668  0.19818052    -0.13100
C1273       C  0.18183330  0.28934763  0.11858014     0.24900
C1274       C  0.21458880  0.29171657  0.12502606    -0.23200
C1275       C  0.23605206  0.29709843  0.09961238     0.19800
C1276       C  0.22443590  0.30623488  0.06990458     0.24800
C1277       C  0.19164768  0.30972081  0.06564689    -0.23100
C1278       C  0.17037448  0.29881449  0.08893106     0.19700
F1279       F  0.13844713  0.30078778  0.08409600    -0.13100
F1280       F  0.16067069  0.28094392  0.14165022    -0.15500
F1281       F  0.24509557  0.31625685  0.04702033    -0.15500
F1282       F  0.26806696  0.29718713  0.10416097    -0.13100
C1283       C  0.13821019  0.43845116  0.03178643     0.24900
C1284       C  0.13522731  0.40688704  0.04252841    -0.23200
C1285       C  0.11053025  0.39879585  0.06352317     0.19800
C1286       C  0.08669763  0.42056258  0.07004227     0.24800
C1287       C  0.08680583  0.45081137  0.05537524    -0.23100
C1288       C  0.11436608  0.46074463  0.03903638     0.19700
F1289       F  0.11543858  0.49014308  0.02555015    -0.13100
F1290       F  0.16279093  0.44699595  0.01257035    -0.15500
F1291       F  0.06129970  0.41015681  0.08695957    -0.15500
F1292       F  0.10712279  0.36853686  0.07463391    -0.13100
C1293       C  0.23793209  0.21166669  0.11996231     0.24900
C1294       C  0.26437888  0.21865180  0.13971585    -0.23200
C1295       C  0.29394489  0.22315507  0.12425188     0.19800
C1296       C  0.29724099  0.21976306  0.09101547     0.24800
C1297       C  0.27120022  0.21192950  0.07130441    -0.23100
C1298       C  0.24129312  0.20840694  0.08630891     0.19700
F1299       F  0.21552676  0.20049827  0.06867665    -0.13100
F1300       F  0.20862687  0.20819354  0.13312521    -0.15500
F1301       F  0.32656465  0.22392804  0.07799233    -0.15500
F1302       F  0.32028548  0.23047586  0.14135377    -0.13100
C1303       C  0.39341630  0.14987952  0.96881452     0.24900
C1304       C  0.39708236  0.12046141  0.98450232    -0.23200
C1305       C  0.37370080  0.11042585  0.00641938     0.19800
C1306       C  0.34731939  0.12961005  0.01294838     0.24800
C1307       C  0.34318541  0.15869367  0.99680004    -0.23100
C1308       C  0.36647434  0.16880720  0.97474984     0.19700
F1309       F  0.36317377  0.19708340  0.95914167    -0.13100
F1310       F  0.41549397  0.15983749  0.94732935    -0.15500
F1311       F  0.32489569  0.11895144  0.03375017    -0.15500
F1312       F  0.37564452  0.08115967  0.02026223    -0.13100
C1313       C  0.88404092  0.98078858  0.64634813     0.24900
C1314       C  0.85479235  0.99612577  0.65092700    -0.23200
C1315       C  0.84141457  0.01475074  0.62625132     0.19800
C1316       C  0.85688350  0.01751379  0.59696760     0.24800
C1317       C  0.88607773  0.00205964  0.59214839    -0.23100
C1318       C  0.90007147  0.98440996  0.61744201     0.19700
F1319       F  0.92957127  0.97136530  0.61451498    -0.13100
F1320       F  0.89751250  0.96321605  0.67019570    -0.15500
F1321       F  0.84332174  0.03510815  0.57319385    -0.15500
F1322       F  0.81291292  0.02959276  0.63027869    -0.13100
C1323       C  0.58820184  0.03572025  0.91788419     0.24900
C1324       C  0.55915702  0.02180429  0.90895354    -0.23200
C1325       C  0.55542196  0.01130570  0.87744775     0.19800
C1326       C  0.58181245  0.01043259  0.85694147     0.24800
C1327       C  0.61138730  0.02195805  0.86719922    -0.23100
C1328       C  0.61383183  0.03635075  0.89696181     0.19700
F1329       F  0.64208099  0.04809187  0.90710833    -0.13100
F1330       F  0.59291752  0.04585787  0.94805608    -0.15500
F1331       F  0.57891909  0.99718324  0.82773090    -0.15500
F1332       F  0.52743598  0.99849746  0.86799923    -0.13100
C1333       C  0.99607010  0.88336755  0.56490808     0.24900
C1334       C  0.99877148  0.91581131  0.57169560    -0.23200
C1335       C  0.00386814  0.92529235  0.60336316     0.19800
C1336       C  0.00593496  0.90290154  0.62790180     0.24800
C1337       C  0.00192039  0.87071154  0.62140491    -0.23100
C1338       C  0.99723016  0.86085158  0.58984234     0.19700
F1339       F  0.99300773  0.82964331  0.58341293    -0.13100
F1340       F  0.99063064  0.87382699  0.53460357    -0.15500
F1341       F  0.01006833  0.91277423  0.65834732    -0.15500
F1342       F  0.00458188  0.95653798  0.61080657    -0.13100
C1343       C  0.99716513  0.63186704  0.89428059     0.24900
C1344       C  0.98537322  0.62906265  0.86328921    -0.23200
C1345       C  0.97577034  0.59922350  0.85209648     0.19800
C1346       C  0.97774734  0.57235489  0.87215742     0.24800
C1347       C  0.98890755  0.57549843  0.90347601    -0.23100
C1348       C  0.99850383  0.60542928  0.91435526     0.19700
F1349       F  0.00749213  0.60927592  0.94518154    -0.13100
F1350       F  0.00603824  0.66059935  0.90555024    -0.15500
F1351       F  0.96802409  0.54368242  0.86151988    -0.15500
F1352       F  0.96464443  0.59620900  0.82189729    -0.13100
C1353       C  0.62015526  0.88809466  0.00416137     0.24900
C1354       C  0.61732594  0.85585965  0.99731238    -0.23200
C1355       C  0.58701963  0.84245124  0.99314721     0.19800
C1356       C  0.55963625  0.86160851  0.99526490     0.24800
C1357       C  0.56270392  0.89409574  0.00149077    -0.23100
C1358       C  0.59313839  0.90711787  0.00596520     0.19700
F1359       F  0.59663761  0.93878941  0.01057468    -0.13100
F1360       F  0.64925610  0.90127681  0.00839335    -0.15500
F1361       F  0.53044483  0.84880669  0.99069416    -0.15500
F1362       F  0.58406110  0.81096249  0.98731753    -0.13100
C1363       C  0.87357882  0.61430836  0.05166366     0.24900
C1364       C  0.84610182  0.61039126  0.03317771    -0.23200
C1365       C  0.84041051  0.58085686  0.01900168     0.19800
C1366       C  0.86373131  0.55684813  0.02033512     0.24800
C1367       C  0.89348795  0.56295752  0.03436014    -0.23100
C1368       C  0.89724745  0.59103808  0.05190884     0.19700
F1369       F  0.92532942  0.59785233  0.06614055    -0.13100
F1370       F  0.87934344  0.64225331  0.06640826    -0.15500
F1371       F  0.85907793  0.52948723  0.00422562    -0.15500
F1372       F  0.81318602  0.57597443  0.00238627    -0.13100
C1373       C  0.91876762  0.35553776  0.52872764     0.24900
C1374       C  0.91764451  0.38385282  0.54618646    -0.23200
C1375       C  0.89217682  0.38874008  0.56755191     0.19800
C1376       C  0.86637276  0.36803627  0.56809277     0.24800
C1377       C  0.86538354  0.34249982  0.54690040    -0.23100
C1378       C  0.89253696  0.33527735  0.52864815     0.19700
F1379       F  0.89275496  0.30989116  0.50896396    -0.13100
F1380       F  0.94312211  0.34993787  0.50823920    -0.15500
F1381       F  0.84082366  0.37522171  0.58658949    -0.15500
F1382       F  0.89022697  0.41560815  0.58501324    -0.13100
C1383       C  0.89032896  0.45647029  0.36743560     0.24900
C1384       C  0.86657504  0.48023148  0.36716617    -0.23200
C1385       C  0.86915682  0.50598714  0.38790362     0.19800
C1386       C  0.89360651  0.50689633  0.41005232     0.24800
C1387       C  0.91667049  0.48251792  0.41151992    -0.23100
C1388       C  0.91563524  0.45797678  0.38907841     0.19700
F1389       F  0.93746838  0.43406029  0.39012040    -0.13100
F1390       F  0.88869994  0.43150991  0.34732845    -0.15500
F1391       F  0.89308212  0.53046613  0.43178603    -0.15500
F1392       F  0.84656900  0.52922063  0.38855729    -0.13100
C1393       C  0.19072182  0.26389990  0.41714832     0.24900
C1394       C  0.19517981  0.28646444  0.39225726    -0.23200
C1395       C  0.19535392  0.31899594  0.39966797     0.19800
C1396       C  0.18711006  0.32866428  0.43026884     0.24800
C1397       C  0.17917715  0.30600003  0.45369214    -0.23100
C1398       C  0.18359569  0.27375408  0.44782181     0.19700
F1399       F  0.17610646  0.25164665  0.47043273    -0.13100
F1400       F  0.18970978  0.23225237  0.41146450    -0.15500
F1401       F  0.18357665  0.36014331  0.43620466    -0.15500
F1402       F  0.20092666  0.34152850  0.37692616    -0.13100
C1403       C  0.02548476  0.37691455  0.48682559     0.24900
C1404       C  0.03374632  0.40138041  0.46511345    -0.23200
C1405       C  0.05937215  0.39602181  0.44412289     0.19800
C1406       C  0.07983800  0.37060002  0.44915843     0.24800
C1407       C  0.07615672  0.35091615  0.47627714    -0.23100
C1408       C  0.04736950  0.35234466  0.49334832     0.19700
F1409       F  0.04191679  0.33217177  0.51822876    -0.13100
F1410       F  0.00003896  0.38063135  0.50638793    -0.15500
F1411       F  0.10584216  0.36859454  0.42996812    -0.15500
F1412       F  0.06829834  0.41786905  0.42195771    -0.13100
C1413       C  0.26011367  0.21365790  0.43333763     0.24900
C1414       C  0.27844642  0.23487442  0.45128283    -0.23200
C1415       C  0.29407363  0.25950905  0.43445453     0.19800
C1416       C  0.29158047  0.26250827  0.40069178     0.24800
C1417       C  0.27416160  0.24031917  0.38261789    -0.23100
C1418       C  0.25820944  0.21606253  0.39986593     0.19700
F1419       F  0.24070755  0.19405237  0.38438223    -0.13100
F1420       F  0.24505180  0.18922422  0.44831603    -0.15500
F1421       F  0.30748836  0.28630050  0.38564332    -0.15500
F1422       F  0.31338247  0.27953266  0.45043914    -0.13100
C1423       C  0.10048714  0.66606916  0.48606697     0.24900
C1424       C  0.12411421  0.65873733  0.50881042    -0.23200
C1425       C  0.11940740  0.63387238  0.53065630     0.19800
C1426       C  0.09341950  0.61402492  0.52733250     0.24800
C1427       C  0.07108262  0.61941351  0.50268537    -0.23100
C1428       C  0.07357805  0.64693252  0.48359861     0.19700
F1429       F  0.05226512  0.65269574  0.45984440    -0.13100
F1430       F  0.10447388  0.69046001  0.46498401    -0.15500
F1431       F  0.09235937  0.58751032  0.54593987    -0.15500
F1432       F  0.14192627  0.62636293  0.55278669    -0.13100
C1433       C  0.60588485  0.05795981  0.50773172     0.24900
C1434       C  0.57396248  0.06370361  0.51598586    -0.23200
C1435       C  0.56369968  0.09518826  0.52099271     0.19800
C1436       C  0.58499433  0.12035854  0.51860936     0.24800
C1437       C  0.61673171  0.11481361  0.50997609    -0.23100
C1438       C  0.62720096  0.08347552  0.50464123     0.19700
F1439       F  0.65807488  0.07763128  0.49700491    -0.13100
F1440       F  0.61609325  0.02789321  0.50209716    -0.15500
F1441       F  0.57446743  0.15038161  0.52410592    -0.15500
F1442       F  0.53255879  0.10165409  0.52698591    -0.13100
C1443       C  0.37241147  0.11932097  0.49538080     0.24900
C1444       C  0.36821273  0.09730634  0.52061089    -0.23200
C1445       C  0.34357374  0.10273228  0.54268553     0.19800
C1446       C  0.32520030  0.13068873  0.54093604     0.24800
C1447       C  0.33055943  0.15337223  0.51653945    -0.23100
C1448       C  0.35373084  0.14683760  0.49324815     0.19700
F1449       F  0.35975392  0.16801871  0.46933530    -0.13100
F1450       F  0.39595559  0.11525458  0.47366746    -0.15500
F1451       F  0.30234889  0.13565622  0.56327142    -0.15500
F1452       F  0.33861676  0.08181495  0.56704582    -0.13100
C1453       C  0.40463571  0.89637259  0.48508250     0.24900
C1454       C  0.39234820  0.92558545  0.47372703    -0.23200
C1455       C  0.36123030  0.92701405  0.46153707     0.19800
C1456       C  0.34238891  0.89955917  0.46157415     0.24800
C1457       C  0.35465439  0.87077233  0.47397042    -0.23100
C1458       C  0.38581153  0.86937180  0.48555166     0.19700
F1459       F  0.39811553  0.84157130  0.49699387    -0.13100
F1460       F  0.43529384  0.89388402  0.49513178    -0.15500
F1461       F  0.31213766  0.90115533  0.45024955    -0.15500
F1462       F  0.34942347  0.95471408  0.44942709    -0.13100
C1463       C  0.52083698  0.86832315  0.39115524     0.24900
C1464       C  0.52309040  0.86876987  0.35794146    -0.23200
C1465       C  0.52390254  0.89793054  0.34120470     0.19800
C1466       C  0.52169020  0.92659936  0.35782081     0.24800
C1467       C  0.51830305  0.92600598  0.39109818    -0.23100
C1468       C  0.51818149  0.89664117  0.40760818     0.19700
F1469       F  0.51274189  0.89538631  0.43954649    -0.13100
F1470       F  0.51902811  0.84031197  0.40745787    -0.15500
F1471       F  0.52080537  0.95463191  0.34150748    -0.15500
F1472       F  0.52522081  0.89850496  0.30885185    -0.13100
C1473       C  0.64415191  0.89574173  0.52540498     0.24900
C1474       C  0.64301250  0.87060482  0.50354887    -0.23200
C1475       C  0.62105562  0.87215177  0.47831486     0.19800
C1476       C  0.59897645  0.89684305  0.47648741     0.24800
C1477       C  0.59881133  0.92112571  0.49928042    -0.23100
C1478       C  0.62235914  0.92102314  0.52308329     0.19700
F1479       F  0.62280880  0.94424831  0.54526203    -0.13100
F1480       F  0.66593760  0.89555552  0.54930281    -0.15500
F1481       F  0.57617368  0.89563393  0.45366955    -0.15500
F1482       F  0.61922516  0.84850522  0.45663754    -0.13100
C1483       C  0.86988960  0.60721452  0.48614535     0.24900
C1484       C  0.87642777  0.63953809  0.48891689    -0.23200
C1485       C  0.90799670  0.64969935  0.49300048     0.19800
C1486       C  0.93281725  0.62723919  0.49521671     0.24800
C1487       C  0.92588691  0.59468947  0.49380383    -0.23100
C1488       C  0.89429226  0.58496892  0.48893117     0.19700
F1489       F  0.88668632  0.55368095  0.48998481    -0.13100
F1490       F  0.83939328  0.59709426  0.48322017    -0.15500
F1491       F  0.96305712  0.63697176  0.50064504    -0.15500
F1492       F  0.91448932  0.68106740  0.49602821    -0.13100
C1493       C  0.48241174  0.90980652  0.64670230     0.24900
C1494       C  0.46547249  0.88167494  0.64135320    -0.23200
C1495       C  0.44444486  0.88022067  0.61540193     0.19800
C1496       C  0.44402671  0.90449891  0.59253354     0.24800
C1497       C  0.46412263  0.93092899  0.59573339    -0.23100
C1498       C  0.48116936  0.93468458  0.62428901     0.19700
F1499       F  0.49999303  0.96043447  0.62825811    -0.13100
F1500       F  0.50155087  0.91241275  0.67260979    -0.15500
F1501       F  0.42713495  0.90008651  0.56536019    -0.15500
F1502       F  0.42698777  0.85373940  0.61017814    -0.13100
C1503       C  0.08432385  0.49391841  0.63801688     0.24900
C1504       C  0.11510531  0.50294637  0.62843919    -0.23200
C1505       C  0.12018104  0.51446087  0.59741072     0.19800
C1506       C  0.09501250  0.51631175  0.57590376     0.24800
C1507       C  0.06403891  0.50782730  0.58539505    -0.23100
C1508       C  0.05876515  0.49654295  0.61657114     0.19700
F1509       F  0.02922229  0.48735764  0.62580871    -0.13100
F1510       F  0.07906569  0.48298304  0.66813612    -0.15500
F1511       F  0.10112582  0.52475147  0.54514787    -0.15500
F1512       F  0.14983577  0.52280345  0.58760458    -0.13100
C1513       C  0.66471878  0.48163631  0.12529994     0.24900
C1514       C  0.65766713  0.50364454  0.14932491    -0.23200
C1515       C  0.63419535  0.52691416  0.14416772     0.19800
C1516       C  0.61533858  0.52588461  0.11708614     0.24800
C1517       C  0.62034482  0.50204629  0.09430637    -0.23100
C1518       C  0.64651749  0.48132859  0.09746727     0.19700
F1519       F  0.65166246  0.45826391  0.07564494    -0.13100
F1520       F  0.68797537  0.45942407  0.12954028    -0.15500
F1521       F  0.58967903  0.54563180  0.11528643    -0.15500
F1522       F  0.62703093  0.54844417  0.16699564    -0.13100
C1523       C  0.50672647  0.57709965  0.10283797     0.24900
C1524       C  0.50814768  0.58815015  0.07105980    -0.23200
C1525       C  0.50358899  0.62063989  0.06441498     0.19800
C1526       C  0.49770022  0.64178149  0.08950425     0.24800
C1527       C  0.49604931  0.63038718  0.12116664    -0.23100
C1528       C  0.50083102  0.59803034  0.12760868     0.19700
F1529       F  0.50004227  0.58675426  0.15808975    -0.13100
F1530       F  0.51061869  0.54570429  0.10976733    -0.15500
F1531       F  0.49413195  0.67328056  0.08307286    -0.15500
F1532       F  0.50477264  0.63168550  0.03389338    -0.13100
C1533       C  0.50055810  0.64429970  0.93104613     0.24900
C1534       C  0.50938502  0.61206824  0.93011947    -0.23200
C1535       C  0.51849059  0.59874275  0.90068503     0.19800
C1536       C  0.51823220  0.61702581  0.87283269     0.24800
C1537       C  0.50751925  0.64847705  0.87351798    -0.23100
C1538       C  0.49902576  0.66225658  0.90271784     0.19700
F1539       F  0.48923868  0.69303476  0.90368774    -0.13100
F1540       F  0.49316583  0.65823734  0.95912668    -0.15500
F1541       F  0.52671857  0.60347641  0.84481791    -0.15500
F1542       F  0.52627403  0.56746285  0.89861852    -0.13100
C1543       C  0.39043162  0.55894634  0.89605695     0.24900
C1544       C  0.38467573  0.53985231  0.92323543    -0.23200
C1545       C  0.35546693  0.52396767  0.92609525     0.19800
C1546       C  0.33490709  0.52272767  0.90003384     0.24800
C1547       C  0.34262424  0.53871906  0.87151699    -0.23100
C1548       C  0.36929676  0.55860485  0.87044391     0.19700
F1549       F  0.37677300  0.57493913  0.84335722    -0.13100
F1550       F  0.41831985  0.57478531  0.89261171    -0.15500
F1551       F  0.30848308  0.50439393  0.90200010    -0.15500
F1552       F  0.34903360  0.50606175  0.95237365    -0.13100
C1553       C  0.45314286  0.35791554  0.90934447     0.24900
C1554       C  0.47513166  0.35976206  0.88403446    -0.23200
C1555       C  0.49997275  0.38185209  0.88534071     0.19800
C1556       C  0.50111264  0.40370266  0.90975241     0.24800
C1557       C  0.47791018  0.40354525  0.93393056    -0.23100
C1558       C  0.45476693  0.37955037  0.93446672     0.19700
F1559       F  0.43229873  0.37886904  0.95775492    -0.13100
F1560       F  0.42973412  0.33583425  0.90929287    -0.15500
F1561       F  0.52321650  0.42704804  0.90796203    -0.15500
F1562       F  0.52165154  0.38434538  0.86139835    -0.13100
C1563       C  0.51739363  0.12957344  0.63970649     0.24900
C1564       C  0.49812781  0.13174011  0.66685443    -0.23200
C1565       C  0.47931032  0.10583066  0.67634733     0.19800
C1566       C  0.47718746  0.07923468  0.65689369     0.24800
C1567       C  0.49347775  0.07882721  0.62768231    -0.23100
C1568       C  0.51504299  0.10327775  0.62015736     0.19700
F1569       F  0.53075051  0.10366672  0.59187170    -0.13100
F1570       F  0.53565278  0.15445027  0.63013139    -0.15500
F1571       F  0.45646475  0.05573910  0.66454747    -0.15500
F1572       F  0.46157596  0.10718959  0.70338360    -0.13100
C1573       C  0.58687613  0.48703329  0.88080216     0.24900
C1574       C  0.61977965  0.48223867  0.88224314    -0.23200
C1575       C  0.63487631  0.47805312  0.91194487     0.19800
C1576       C  0.61722186  0.48033271  0.94022533     0.24800
C1577       C  0.58445037  0.48653994  0.93875082    -0.23100
C1578       C  0.56927925  0.48905782  0.90880110     0.19700
F1579       F  0.53760045  0.49541631  0.90671876    -0.13100
F1580       F  0.57201510  0.49105594  0.85225444    -0.15500
F1581       F  0.63215339  0.47803733  0.96886113    -0.15500
F1582       F  0.66681981  0.47323674  0.91347731    -0.13100
C1583       C  0.88783800  0.51056491  0.66635731     0.24900
C1584       C  0.85925543  0.50109547  0.65191633    -0.23200
C1585       C  0.85950219  0.48999415  0.62064659     0.19800
C1586       C  0.88770551  0.48990725  0.60327645     0.24800
C1587       C  0.91642693  0.49967125  0.61739367    -0.23100
C1588       C  0.91646665  0.50963816  0.64917091     0.19700
F1589       F  0.94386065  0.51940170  0.66299307    -0.13100
F1590       F  0.88789486  0.52070573  0.69696923    -0.15500
F1591       F  0.88674286  0.48178484  0.57203331    -0.15500
F1592       F  0.83209023  0.48071657  0.60643877    -0.13100
C1593       C  0.31402536  0.39127622  0.19974552     0.24900
C1594       C  0.28194016  0.38466497  0.20656996    -0.23200
C1595       C  0.25918098  0.40954164  0.20432315     0.19800
C1596       C  0.26765819  0.43890174  0.19142650     0.24800
C1597       C  0.29867705  0.44355830  0.18036010    -0.23100
C1598       C  0.32220826  0.42041149  0.18625763     0.19700
F1599       F  0.35286301  0.42537194  0.17725170    -0.13100
F1600       F  0.33717165  0.36890326  0.20372997    -0.15500
F1601       F  0.24484088  0.46148898  0.18672199    -0.15500
F1602       F  0.22814846  0.40490744  0.21201605    -0.13100
C1603       C  0.35275779  0.48467395  0.05712123     0.24900
C1604       C  0.35676205  0.48288371  0.09034051    -0.23200
C1605       C  0.38650373  0.47562564  0.10349334     0.19800
C1606       C  0.41254602  0.47173980  0.08389384     0.24800
C1607       C  0.40918299  0.47416333  0.05060575    -0.23100
C1608       C  0.37909442  0.47992346  0.03713841     0.19700
F1609       F  0.37589164  0.48293319  0.00509893    -0.13100
F1610       F  0.32383480  0.49161985  0.04431800    -0.15500
F1611       F  0.44171058  0.46849948  0.09755373    -0.15500
F1612       F  0.39068615  0.47427756  0.13563215    -0.13100
C1613       C  0.24996613  0.42693687  0.30150900     0.24900
C1614       C  0.22068357  0.44120256  0.29251528    -0.23200
C1615       C  0.19717054  0.42096034  0.28016972     0.19800
C1616       C  0.20187085  0.38791776  0.27800037     0.24800
C1617       C  0.23061084  0.37305581  0.28792892    -0.23100
C1618       C  0.25494745  0.39342130  0.29904098     0.19700
F1619       F  0.28349586  0.38095199  0.30794113    -0.13100
F1620       F  0.27324067  0.44511546  0.31410063    -0.15500
F1621       F  0.17758444  0.37045940  0.26622233    -0.15500
F1622       F  0.16867033  0.43327225  0.27072264    -0.13100
C1623       C  0.13343045  0.48541207  0.36830573     0.24900
C1624       C  0.13850004  0.50640061  0.34246884    -0.23200
C1625       C  0.11437233  0.52853919  0.33445375     0.19800
C1626       C  0.08624432  0.53024393  0.35259516     0.24800
C1627       C  0.08211377  0.51040457  0.37951679    -0.23100
C1628       C  0.10583220  0.48771418  0.38683563     0.19700
F1629       F  0.10368095  0.46972878  0.41380884    -0.13100
F1630       F  0.15631304  0.46416166  0.37719689    -0.15500
F1631       F  0.06401186  0.55271334  0.34527423    -0.15500
F1632       F  0.11820528  0.54883171  0.30935798    -0.13100
C1633       C  0.42213997  0.29999725  0.26776190     0.24900
C1634       C  0.43751403  0.28867718  0.24004975    -0.23200
C1635       C  0.41844135  0.27323707  0.21748623     0.19800
C1636       C  0.38533639  0.27023900  0.22143708     0.24800
C1637       C  0.36924848  0.28268648  0.24833105    -0.23100
C1638       C  0.38853691  0.29684701  0.27197510     0.19700
F1639       F  0.37492283  0.30821795  0.29891603    -0.13100
F1640       F  0.43932609  0.31546211  0.29005963    -0.15500
F1641       F  0.36901895  0.25524436  0.19813864    -0.15500
F1642       F  0.43192483  0.26183872  0.19044034    -0.13100
C1643       C  0.52838719  0.35729778  0.10832313     0.24900
C1644       C  0.50679602  0.38258900  0.10352677    -0.23200
C1645       C  0.48132550  0.38610002  0.12506083     0.19800
C1646       C  0.47852424  0.36600163  0.15178263     0.24800
C1647       C  0.50149582  0.34219984  0.15799220    -0.23100
C1648       C  0.52600155  0.33752098  0.13543757     0.19700
F1649       F  0.54801715  0.31412793  0.13984521    -0.13100
F1650       F  0.55296267  0.35305363  0.08772409    -0.15500
F1651       F  0.45448605  0.37137314  0.17274291    -0.15500
F1652       F  0.46037616  0.41054573  0.12155142    -0.13100
C1653       C  0.41298344  0.22768833  0.34818440     0.24900
C1654       C  0.43964256  0.21807462  0.33056040    -0.23200
C1655       C  0.43656322  0.21199802  0.29792984     0.19800
C1656       C  0.40651751  0.21043295  0.28430666     0.24800
C1657       C  0.37919266  0.21602163  0.30296827    -0.23100
C1658       C  0.38280690  0.22681692  0.33444218     0.19700
F1659       F  0.35716645  0.23470462  0.35251925    -0.13100
F1660       F  0.41587805  0.23444316  0.37964599    -0.15500
F1661       F  0.40428735  0.20035691  0.25374441    -0.15500
F1662       F  0.46204127  0.20241941  0.28046587    -0.13100
C1663       C  0.46690644  0.09757135  0.37498575     0.24900
C1664       C  0.46954304  0.12645510  0.39119225    -0.23200
C1665       C  0.46438966  0.12782960  0.42393529     0.19800
C1666       C  0.45898643  0.10005474  0.44101947     0.24800
C1667       C  0.45731547  0.07066040  0.42523051    -0.23100
C1668       C  0.46039210  0.06963013  0.39199849     0.19700
F1669       F  0.46013139  0.04139266  0.37670716    -0.13100
F1670       F  0.47202016  0.09636517  0.34304311    -0.15500
F1671       F  0.45893973  0.10142373  0.47336507    -0.15500
F1672       F  0.46720043  0.15570290  0.43966174    -0.13100
C1673       C  0.23971327  0.88940741  0.28258546     0.24900
C1674       C  0.22336676  0.87328487  0.25809212    -0.23200
C1675       C  0.20260644  0.89191405  0.23872994     0.19800
C1676       C  0.19745054  0.92484231  0.24472680     0.24800
C1677       C  0.21355225  0.94044958  0.26962664    -0.23100
C1678       C  0.23513773  0.92214864  0.28790894     0.19700
F1679       F  0.25082887  0.93581809  0.31245382    -0.13100
F1680       F  0.26001016  0.87335711  0.30225547    -0.15500
F1681       F  0.17528868  0.94100826  0.22734027    -0.15500
F1682       F  0.18595874  0.87800396  0.21501175    -0.13100
C1683       C  0.31886945  0.90883470  0.23525967     0.24900
C1684       C  0.32219227  0.88467512  0.21236074    -0.23200
C1685       C  0.33648449  0.89234434  0.18276288     0.19800
C1686       C  0.34637786  0.92351329  0.17617912     0.24800
C1687       C  0.34163105  0.94740434  0.19882551    -0.23100
C1688       C  0.32826203  0.93963982  0.22845437     0.19700
F1689       F  0.32443695  0.96205177  0.25123556    -0.13100
F1690       F  0.30694329  0.90295993  0.26478866    -0.15500
F1691       F  0.35946869  0.93054338  0.14734822    -0.15500
F1692       F  0.34102775  0.86987272  0.16023444    -0.13100
C1693       C  0.11445576  0.75960298  0.19802234     0.24900
C1694       C  0.13604680  0.73581143  0.20854990    -0.23200
C1695       C  0.12402710  0.70488760  0.21402153     0.19800
C1696       C  0.09229202  0.69770802  0.20813109     0.24800
C1697       C  0.07111593  0.72079272  0.19620998    -0.23100
C1698       C  0.08220215  0.75210278  0.19182976     0.19700
F1699       F  0.06230386  0.77497650  0.18022488    -0.13100
F1700       F  0.12448263  0.78990922  0.19357234    -0.15500
F1701       F  0.08232710  0.66744478  0.21339235    -0.15500
F1702       F  0.14306950  0.68085897  0.22472995    -0.13100
C1703       C  0.10901294  0.81723055  0.28720685     0.24900
C1704       C  0.11917335  0.78542248  0.28519760    -0.23200
C1705       C  0.09580728  0.76157637  0.28094724     0.19800
C1706       C  0.06349699  0.76914771  0.28061837     0.24800
C1707       C  0.05349640  0.80042424  0.28528706    -0.23100
C1708       C  0.07641442  0.82457311  0.28769040     0.19700
F1709       F  0.06710928  0.85511641  0.29235729    -0.13100
F1710       F  0.13037529  0.84103957  0.29041229    -0.15500
F1711       F  0.04194036  0.74527738  0.27925479    -0.15500
F1712       F  0.10376806  0.73035711  0.27884470    -0.13100
C1713       C  0.30593187  0.80509481  0.11980566     0.24900
C1714       C  0.27421462  0.79852508  0.12813146    -0.23200
C1715       C  0.25062647  0.80095806  0.10428114     0.19800
C1716       C  0.25885218  0.80980940  0.07273294     0.24800
C1717       C  0.29066787  0.81708849  0.06481105    -0.23100
C1718       C  0.31398853  0.81436197  0.08889987     0.19700
F1719       F  0.34514760  0.82023347  0.08261185    -0.13100
F1720       F  0.32959570  0.80256464  0.14176248    -0.15500
F1721       F  0.23569733  0.81175653  0.05022016    -0.15500
F1722       F  0.21995353  0.79356185  0.11115601    -0.13100
C1723       C  0.17236194  0.69012643  0.06809322     0.24900
C1724       C  0.19113065  0.70024128  0.04208557    -0.23200
C1725       C  0.22013933  0.71532153  0.04808051     0.19800
C1726       C  0.23083949  0.71911119  0.07940026     0.24800
C1727       C  0.21222977  0.70877915  0.10571275    -0.23100
C1728       C  0.18255678  0.69466808  0.09950817     0.19700
F1729       F  0.16394282  0.68376246  0.12370603    -0.13100
F1730       F  0.14422459  0.67526695  0.06310318    -0.15500
F1731       F  0.26016383  0.73175173  0.08364751    -0.15500
F1732       F  0.23927400  0.72446740  0.02355743    -0.13100
C1733       C  0.37763527  0.70859952  0.18559670     0.24900
C1734       C  0.36797841  0.70568438  0.21784337    -0.23200
C1735       C  0.39036174  0.69407902  0.24024771     0.19800
C1736       C  0.42165030  0.68618674  0.23061956     0.24800
C1737       C  0.43088864  0.68920628  0.19837077    -0.23100
C1738       C  0.40844547  0.70045443  0.17612723     0.19700
F1739       F  0.41653886  0.70420653  0.14493355    -0.13100
F1740       F  0.35720318  0.71941298  0.16275231    -0.15500
F1741       F  0.44263658  0.67486655  0.25264054    -0.15500
F1742       F  0.38226588  0.69101740  0.27146569    -0.13100
C1743       C  0.39718184  0.79970003  0.31560119     0.24900
C1744       C  0.39121583  0.78778708  0.28492395    -0.23200
C1745       C  0.41731947  0.77551381  0.26741776     0.19800
C1746       C  0.44849100  0.77676770  0.27952379     0.24800
C1747       C  0.45449433  0.79085604  0.30909870    -0.23100
C1748       C  0.42829153  0.80125204  0.32742817     0.19700
F1749       F  0.43284434  0.81412830  0.35662010    -0.13100
F1750       F  0.37317719  0.81157411  0.33371992    -0.15500
F1751       F  0.47296546  0.76627403  0.26120836    -0.15500
F1752       F  0.41307608  0.76346594  0.23786725    -0.13100
C1753       C  0.20935210  0.61595135  0.26368428     0.24900
C1754       C  0.23739795  0.63036515  0.27527902    -0.23200
C1755       C  0.25937655  0.61007171  0.29138674     0.19800
C1756       C  0.25271725  0.57718583  0.29680226     0.24800
C1757       C  0.22390297  0.56354476  0.28630853    -0.23100
C1758       C  0.20275275  0.58359893  0.26930014     0.19700
F1759       F  0.17462187  0.57194718  0.25877138    -0.13100
F1760       F  0.18745475  0.63330405  0.24711660    -0.15500
F1761       F  0.27372567  0.55915178  0.31377338    -0.15500
F1762       F  0.28695677  0.62213798  0.30273777    -0.13100
C1763       C  0.31430377  0.61171519  0.16502953     0.24900
C1764       C  0.28401641  0.61876209  0.17775342    -0.23200
C1765       C  0.26112826  0.59430130  0.17976642     0.19800
C1766       C  0.26834490  0.56389461  0.16943960     0.24800
C1767       C  0.29823701  0.55715602  0.15638603    -0.23100
C1768       C  0.32122473  0.58117493  0.15417923     0.19700
F1769       F  0.35064579  0.57490003  0.14226102    -0.13100
F1770       F  0.33716642  0.63428969  0.16271167    -0.15500
F1771       F  0.24561397  0.54113153  0.17135658    -0.15500
F1772       F  0.23122277  0.59966927  0.19089619    -0.13100
C1773       C  0.27308059  0.79475390  0.37386544     0.24900
C1774       C  0.28711534  0.76719515  0.36054250    -0.23200
C1775       C  0.30514800  0.74708155  0.38086155     0.19800
C1776       C  0.31040305  0.75544990  0.41303548     0.24800
C1777       C  0.29733510  0.78374795  0.42528774    -0.23100
C1778       C  0.27799417  0.80259723  0.40558354     0.19700
F1779       F  0.26500303  0.82994164  0.41677611    -0.13100
F1780       F  0.25468629  0.81494265  0.35617504    -0.15500
F1781       F  0.32968014  0.73698939  0.43156721    -0.15500
F1782       F  0.31878889  0.72024872  0.36935501    -0.13100
C1783       C  0.21204999  0.74097690  0.40346466     0.24900
C1784       C  0.21055994  0.71765994  0.37931109    -0.23200
C1785       C  0.21010430  0.68545878  0.38872203     0.19800
C1786       C  0.20946903  0.67701418  0.42116767     0.24800
C1787       C  0.21004480  0.70044015  0.44488093    -0.23100
C1788       C  0.21244122  0.73234696  0.43572111     0.19700
F1789       F  0.21157000  0.75548920  0.45802005    -0.13100
F1790       F  0.21084448  0.77247628  0.39629351    -0.15500
F1791       F  0.20636649  0.64592015  0.42951480    -0.15500
F1792       F  0.20855063  0.66213400  0.36670434    -0.13100
C1793       C  0.88594070  0.26946000  0.25885026     0.24900
C1794       C  0.86872595  0.24821327  0.23936049    -0.23200
C1795       C  0.88637524  0.23190485  0.21583916     0.19800
C1796       C  0.91945994  0.23771167  0.21122687     0.24800
C1797       C  0.93622654  0.25940788  0.23039188    -0.23100
C1798       C  0.91880932  0.27480374  0.25446742     0.19700
F1799       F  0.93330361  0.29693411  0.27265258    -0.13100
F1800       F  0.87079826  0.28616576  0.28190660    -0.15500
F1801       F  0.93467900  0.22366677  0.18651756    -0.15500
F1802       F  0.87131692  0.21167541  0.19602768    -0.13100
C1803       C  0.90029463  0.19207940  0.31010580     0.24900
C1804       C  0.87826641  0.19645702  0.33458680    -0.23200
C1805       C  0.88775214  0.19324951  0.36650910     0.19800
C1806       C  0.91954428  0.18677650  0.37396454     0.24800
C1807       C  0.94222012  0.18366334  0.34941465    -0.23100
C1808       C  0.93204123  0.18578017  0.31730821     0.19700
F1809       F  0.95269074  0.18200359  0.29267952    -0.13100
F1810       F  0.89103403  0.19410039  0.27917445    -0.15500
F1811       F  0.92825083  0.18516662  0.40512455    -0.15500
F1812       F  0.86650712  0.19805110  0.39043786    -0.13100
C1813       C  0.79709437  0.09738292  0.26636175     0.24900
C1814       C  0.78944064  0.11904752  0.29068802    -0.23200
C1815       C  0.79029996  0.10808764  0.32262471     0.19800
C1816       C  0.79924431  0.07694261  0.33011332     0.24800
C1817       C  0.80787283  0.05553239  0.30609919    -0.23100
C1818       C  0.80609947  0.06580560  0.27402029     0.19700
F1819       F  0.81411602  0.04569700  0.25021855    -0.13100
F1820       F  0.79533990  0.10652740  0.23525892    -0.15500
F1821       F  0.79950125  0.06768648  0.36127433    -0.15500
F1822       F  0.78297985  0.12772002  0.34708462    -0.13100
C1823       C  0.71257986  0.07457688  0.24573259     0.24900
C1824       C  0.70116733  0.10113470  0.22793875    -0.23200
C1825       C  0.68804386  0.09565109  0.19756634     0.19800
C1826       C  0.68455441  0.06460745  0.18634579     0.24800
C1827       C  0.69433522  0.03818514  0.20496295    -0.23100
C1828       C  0.70942809  0.04361979  0.23424714     0.19700
F1829       F  0.71940077  0.01886551  0.25284053    -0.13100
F1830       F  0.72586408  0.07819344  0.27496053    -0.15500
F1831       F  0.67108985  0.06038675  0.15727226    -0.15500
F1832       F  0.67734470  0.12015647  0.17905609    -0.13100
C1833       C  0.74521438  0.18643176  0.13162416     0.24900
C1834       C  0.72474564  0.20157537  0.15354208    -0.23200
C1835       C  0.69434101  0.21153600  0.14241755     0.19800
C1836       C  0.68470338  0.20641412  0.11118283     0.24800
C1837       C  0.70458325  0.19085952  0.08959466    -0.23100
C1838       C  0.73513627  0.18103802  0.09986113     0.19700
F1839       F  0.75454600  0.16500979  0.07968438    -0.13100
F1840       F  0.77457847  0.17644815  0.14094213    -0.15500
F1841       F  0.65521735  0.21641754  0.10203736    -0.15500
F1842       F  0.67338797  0.22675676  0.16163680    -0.13100
C1843       C  0.81332096  0.28417912  0.12466109     0.24900
C1844       C  0.78194419  0.27829004  0.13475133    -0.23200
C1845       C  0.75884174  0.27137325  0.11112814     0.19800
C1846       C  0.76645080  0.27209222  0.07867614     0.24800
C1847       C  0.79683243  0.28121413  0.06874167    -0.23100
C1848       C  0.82054614  0.28605702  0.09199397     0.19700
F1849       F  0.85036076  0.29464864  0.08297377    -0.13100
F1850       F  0.83654629  0.29037763  0.14616270    -0.15500
F1851       F  0.74302854  0.26737199  0.05694139    -0.15500
F1852       F  0.72801657  0.26610752  0.11896979    -0.13100
C1853       C  0.60619895  0.28562030  0.27803001     0.24900
C1854       C  0.62678052  0.27245644  0.25472610    -0.23200
C1855       C  0.61265030  0.26418929  0.22532776     0.19800
C1856       C  0.58018123  0.26956486  0.21906260     0.24800
C1857       C  0.55980785  0.28368411  0.24160350    -0.23100
C1858       C  0.57321161  0.29120890  0.27151933     0.19700
F1859       F  0.55482456  0.30538095  0.29390776    -0.13100
F1860       F  0.61801271  0.29371577  0.30689922    -0.15500
F1861       F  0.56868058  0.26152989  0.18999389    -0.15500
F1862       F  0.63036982  0.25114306  0.20177756    -0.13100
C1863       C  0.55560392  0.19341496  0.30140995     0.24900
C1864       C  0.55064098  0.18473924  0.33338548    -0.23200
C1865       C  0.57658614  0.17563372  0.35253899     0.19800
C1866       C  0.60731286  0.17583927  0.34006671     0.24800
C1867       C  0.61249392  0.18459286  0.30790859    -0.23100
C1868       C  0.58613281  0.19308900  0.28867189     0.19700
F1869       F  0.58953290  0.20061240  0.25728001    -0.13100
F1870       F  0.53074209  0.20086813  0.28196770    -0.15500
F1871       F  0.63179555  0.16736869  0.35959920    -0.15500
F1872       F  0.57222857  0.16684040  0.38350739    -0.13100
C1873       C  0.74512373  0.37592695  0.30867776     0.24900
C1874       C  0.76811803  0.35131670  0.30704158    -0.23200
C1875       C  0.80049266  0.35975951  0.30855435     0.19800
C1876       C  0.80977368  0.39131677  0.31067696     0.24800
C1877       C  0.78721277  0.41609263  0.31264358    -0.23100
C1878       C  0.75461575  0.40811413  0.31139908     0.19700
F1879       F  0.73206106  0.43122482  0.31350125    -0.13100
F1880       F  0.71367775  0.36899250  0.30699728    -0.15500
F1881       F  0.84146562  0.39755191  0.31067270    -0.15500
F1882       F  0.82377105  0.33719933  0.30814004    -0.13100
C1883       C  0.74156328  0.39640899  0.22749490     0.24900
C1884       C  0.71768424  0.37277411  0.22980402    -0.23200
C1885       C  0.68625477  0.38248417  0.23639617     0.19800
C1886       C  0.67855363  0.41490317  0.23803216     0.24800
C1887       C  0.70213404  0.43815001  0.23367893    -0.23100
C1888       C  0.73376729  0.42860787  0.22949194     0.19700
F1889       F  0.75675106  0.45059934  0.22413048    -0.13100
F1890       F  0.77249051  0.38873844  0.22177529    -0.15500
F1891       F  0.64769927  0.42372831  0.24218033    -0.15500
F1892       F  0.66284554  0.36075512  0.24064714    -0.13100
C1893       C  0.70235245  0.17832176  0.39566146     0.24900
C1894       C  0.70110257  0.21063980  0.38591694    -0.23200
C1895       C  0.69040436  0.23303421  0.40841344     0.19800
C1896       C  0.68125027  0.22326229  0.43954637     0.24800
C1897       C  0.68225387  0.19088992  0.44874208    -0.23100
C1898       C  0.69306953  0.16873651  0.42635416     0.19700
F1899       F  0.69503897  0.13741047  0.43432765    -0.13100
F1900       F  0.71232992  0.15544509  0.37530604    -0.15500
F1901       F  0.67039496  0.24531104  0.46032324    -0.15500
F1902       F  0.68914053  0.26436334  0.40050463    -0.13100
C1903       C  0.79985374  0.30333069  0.41427740     0.24900
C1904       C  0.78776917  0.27293295  0.40771981    -0.23200
C1905       C  0.77623519  0.25425356  0.43352372     0.19800
C1906       C  0.77819562  0.26503327  0.46489654     0.24800
C1907       C  0.79198809  0.29451576  0.47136176    -0.23100
C1908       C  0.80208577  0.31385241  0.44571857     0.19700
F1909       F  0.81468865  0.34292474  0.45114611    -0.13100
F1910       F  0.81070234  0.32258928  0.39049810    -0.15500
F1911       F  0.76846687  0.24564219  0.48907342    -0.15500
F1912       F  0.76400413  0.22491600  0.42877814    -0.13100
C1913       C  0.11407262  0.79863648  0.69032223     0.24900
C1914       C  0.12219970  0.79989718  0.72302250    -0.23200
C1915       C  0.09768056  0.80475254  0.74541685     0.19800
C1916       C  0.06598956  0.80954006  0.73497350     0.24800
C1917       C  0.05871991  0.80934697  0.70213325    -0.23100
C1918       C  0.08297181  0.80270140  0.68026354     0.19700
F1919       F  0.07664848  0.80052304  0.64855660    -0.13100
F1920       F  0.13637603  0.79368108  0.66739041    -0.15500
F1921       F  0.04276436  0.81530703  0.75668504    -0.15500
F1922       F  0.10422861  0.80441068  0.77710110    -0.13100
C1923       C  0.09648654  0.71830814  0.81445136     0.24900
C1924       C  0.10290369  0.71618279  0.78150965    -0.23200
C1925       C  0.07683439  0.71442970  0.76023886     0.19800
C1926       C  0.04559017  0.71247931  0.77172723     0.24800
C1927       C  0.03961687  0.71216214  0.80460141    -0.23100
C1928       C  0.06520609  0.71595039  0.82582626     0.19700
F1929       F  0.05998932  0.71573167  0.85781029    -0.13100
F1930       F  0.12045004  0.72175151  0.83584715    -0.15500
F1931       F  0.02149030  0.70768601  0.75079176    -0.15500
F1932       F  0.08148673  0.71253522  0.72827092    -0.13100
C1933       C  0.37544894  0.76045803  0.68968316     0.24900
C1934       C  0.35807141  0.77776272  0.71251254    -0.23200
C1935       C  0.37425198  0.80112307  0.73012891     0.19800
C1936       C  0.40624770  0.80768640  0.72441765     0.24800
C1937       C  0.42297285  0.79197296  0.70038635    -0.23100
C1938       C  0.40756301  0.76791376  0.68331141     0.19700
F1939       F  0.42291634  0.75321537  0.65905572    -0.13100
F1940       F  0.36085612  0.73803091  0.67199544    -0.15500
F1941       F  0.42029243  0.83155449  0.74066511    -0.15500
F1942       F  0.35887638  0.81882430  0.75228681    -0.13100
C1943       C  0.40113721  0.74830371  0.79565221     0.24900
C1944       C  0.37537123  0.72674446  0.79547684    -0.23200
C1945       C  0.38233598  0.69392818  0.79600556     0.19800
C1946       C  0.41391709  0.68313210  0.79771217     0.24800
C1947       C  0.43934241  0.70472339  0.79805142    -0.23100
C1948       C  0.43269348  0.73734507  0.79646576     0.19700
F1949       F  0.45668873  0.75871443  0.79820091    -0.13100
F1950       F  0.39602570  0.78013396  0.79673032    -0.15500
F1951       F  0.41969778  0.65139613  0.79979504    -0.15500
F1952       F  0.35866700  0.67211270  0.79554312    -0.13100
C1953       C  0.18110578  0.76040798  0.88255937     0.24900
C1954       C  0.20242730  0.74358404  0.86290620    -0.23200
C1955       C  0.21832950  0.71658898  0.87600785     0.19800
C1956       C  0.21202856  0.70592588  0.90663668     0.24800
C1957       C  0.18960078  0.72133988  0.92554068    -0.23100
C1958       C  0.17459390  0.74918038  0.91383676     0.19700
F1959       F  0.15255609  0.76434274  0.93189641    -0.13100
F1960       F  0.16555887  0.78649783  0.87113114    -0.15500
F1961       F  0.22684585  0.67903851  0.91736690    -0.15500
F1962       F  0.23989312  0.69945131  0.85907155    -0.13100
C1963       C  0.27709471  0.78068582  0.90768534     0.24900
C1964       C  0.28152762  0.80158657  0.88127615    -0.23200
C1965       C  0.28449796  0.83426521  0.88736503     0.19800
C1966       C  0.28567489  0.84522417  0.91873892     0.24800
C1967       C  0.28385123  0.82392800  0.94495323    -0.23100
C1968       C  0.27794457  0.79181277  0.93906222     0.19700
F1969       F  0.27586751  0.77059592  0.96360931    -0.13100
F1970       F  0.27385094  0.74898668  0.90353743    -0.15500
F1971       F  0.29040553  0.87671265  0.92350242    -0.15500
F1972       F  0.28775791  0.85567646  0.86311133    -0.13100
C1973       C  0.23674770  0.89608293  0.80354931     0.24900
C1974       C  0.25341880  0.88075649  0.77879405    -0.23200
C1975       C  0.27545088  0.89868210  0.76070719     0.19800
C1976       C  0.28133348  0.93041646  0.76768757     0.24800
C1977       C  0.26633279  0.94507272  0.79353775    -0.23100
C1978       C  0.24362252  0.92785913  0.81122588     0.19700
F1979       F  0.23006877  0.94091852  0.83742503    -0.13100
F1980       F  0.21570143  0.87969413  0.82187211    -0.15500
F1981       F  0.30391951  0.94623246  0.75070432    -0.15500
F1982       F  0.29266776  0.88520134  0.73696733    -0.13100
C1983       C  0.22866210  0.92451357  0.69397478     0.24900
C1984       C  0.20647411  0.89961025  0.69869799    -0.23200
C1985       C  0.17532209  0.90780263  0.70798648     0.19800
C1986       C  0.16636932  0.93982717  0.71126696     0.24800
C1987       C  0.18830639  0.96451726  0.70578964    -0.23100
C1988       C  0.21966482  0.95645747  0.69756296     0.19700
F1989       F  0.24095470  0.97958918  0.69031020    -0.13100
F1990       F  0.25889242  0.91818816  0.68430728    -0.15500
F1991       F  0.13560839  0.94693603  0.71832958    -0.15500
F1992       F  0.15333602  0.88491460  0.71361345    -0.13100
C1993       C  0.25749799  0.63034589  0.78995623     0.24900
C1994       C  0.27358188  0.64529704  0.76424005    -0.23200
C1995       C  0.29415695  0.62674836  0.74535669     0.19800
C1996       C  0.30037059  0.59476948  0.75370736     0.24800
C1997       C  0.28546797  0.58089542  0.78044052    -0.23100
C1998       C  0.26329376  0.59864809  0.79769962     0.19700
F1999       F  0.24907187  0.58587425  0.82396665    -0.13100
F2000       F  0.23677800  0.64657966  0.80869252    -0.15500
F2001       F  0.32242659  0.57805339  0.73708200    -0.15500
F2002       F  0.30953413  0.63990607  0.72003143    -0.13100
C2003       C  0.19199504  0.59978953  0.73266778     0.24900
C2004       C  0.19434093  0.62504743  0.71008970    -0.23200
C2005       C  0.19746977  0.61737010  0.67765696     0.19800
C2006       C  0.19616607  0.58562308  0.66795259     0.24800
C2007       C  0.19204497  0.56076779  0.69038176    -0.23100
C2008       C  0.19107418  0.56810353  0.72287501     0.19700
F2009       F  0.18636013  0.54483120  0.74505811    -0.13100
F2010       F  0.18867012  0.60559712  0.76429389    -0.15500
F2011       F  0.19773141  0.57915996  0.63633603    -0.15500
F2012       F  0.20116383  0.64053985  0.65517421    -0.13100
C2013       C  0.24565052  0.70745586  0.60991332     0.24900
C2014       C  0.22391722  0.72583588  0.62775787    -0.23200
C2015       C  0.19639682  0.73771787  0.61218153     0.19800
C2016       C  0.19010424  0.73038823  0.58057196     0.24800
C2017       C  0.21078089  0.71084217  0.56330602    -0.23100
C2018       C  0.23901831  0.69989492  0.57787778     0.19700
F2019       F  0.25911754  0.68043282  0.56180508    -0.13100
F2020       F  0.27263937  0.69590590  0.62367240    -0.15500
F2021       F  0.16282186  0.74159882  0.56698033    -0.15500
F2022       F  0.17501687  0.75647443  0.62746310    -0.13100
C2023       C  0.31077464  0.80277639  0.60081860     0.24900
C2024       C  0.27805437  0.80212231  0.60799110    -0.23200
C2025       C  0.25637769  0.79729641  0.58249329     0.19800
C2026       C  0.26707612  0.79447602  0.55097779     0.24800
C2027       C  0.29948161  0.79748161  0.54383066    -0.23100
C2028       C  0.32126269  0.80088734  0.56912782     0.19700
F2029       F  0.35284678  0.80382893  0.56292934    -0.13100
F2030       F  0.33270380  0.80651840  0.62422097    -0.15500
F2031       F  0.24537920  0.79171158  0.52717398    -0.15500
F2032       F  0.22446142  0.79702127  0.58748747    -0.13100
C2033       C  0.22424827  0.21045779  0.90120377     0.24900
C2034       C  0.24438122  0.23012916  0.88247710    -0.23200
C2035       C  0.26982190  0.24504276  0.89851948     0.19800
C2036       C  0.27549364  0.23983763  0.93124069     0.24800
C2037       C  0.25628618  0.21945828  0.94972573    -0.23100
C2038       C  0.23029410  0.20502031  0.93426944     0.19700
F2039       F  0.21176137  0.18423873  0.95072940    -0.13100
F2040       F  0.19919526  0.19576645  0.88742689    -0.15500
F2041       F  0.30153386  0.25324812  0.94459840    -0.15500
F2042       F  0.29026040  0.26423936  0.88237670    -0.13100
C2043       C  0.18733279  0.30235578  0.91418559     0.24900
C2044       C  0.18976453  0.32664857  0.89147382    -0.23200
C2045       C  0.18435681  0.35831601  0.90005816     0.19800
C2046       C  0.17828883  0.36581815  0.93181034     0.24800
C2047       C  0.17745527  0.34155083  0.95512237    -0.23100
C2048       C  0.18121732  0.30958863  0.94579956     0.19700
F2049       F  0.17946454  0.28517901  0.96721415    -0.13100
F2050       F  0.19117534  0.27161586  0.90571680    -0.15500
F2051       F  0.17520618  0.39681325  0.93991493    -0.15500
F2052       F  0.18701808  0.38207552  0.87803884    -0.13100
C2053       C  0.18965031  0.12122577  0.76278255     0.24900
C2054       C  0.19252720  0.14717217  0.74126355    -0.23200
C2055       C  0.19062308  0.14080524  0.70832881     0.19800
C2056       C  0.18668280  0.11012747  0.69713276     0.24800
C2057       C  0.18334603  0.08409793  0.71815423    -0.23100
C2058       C  0.18514963  0.08987411  0.75129016     0.19700
F2059       F  0.18172283  0.06549080  0.77244684    -0.13100
F2060       F  0.19171154  0.12602568  0.79465528    -0.15500
F2061       F  0.18599638  0.10602125  0.66503545    -0.15500
F2062       F  0.19220048  0.16463787  0.68626733    -0.13100
C2063       C  0.27970582  0.08464889  0.83394486     0.24900
C2064       C  0.27604715  0.06220820  0.80947280    -0.23200
C2065       C  0.27109163  0.07304642  0.77829236     0.19800
C2066       C  0.27141895  0.10548013  0.77117176     0.24800
C2067       C  0.27609560  0.12843898  0.79535992    -0.23100
C2068       C  0.27945128  0.11746789  0.82704899     0.19700
F2069       F  0.28370115  0.13823984  0.85117588    -0.13100
F2070       F  0.28484805  0.07463541  0.86442788    -0.15500
F2071       F  0.26845115  0.11395730  0.73994602    -0.15500
F2072       F  0.26898770  0.05208027  0.75401562    -0.13100
C2073       C  0.05839621  0.27411685  0.82377252     0.24900
C2074       C  0.05035558  0.30673512  0.82509980    -0.23200
C2075       C  0.07400321  0.32899784  0.81736437     0.19800
C2076       C  0.10453624  0.31933954  0.80834026     0.24800
C2077       C  0.11298886  0.28684742  0.80684304    -0.23100
C2078       C  0.08950664  0.26425764  0.81492718     0.19700
F2079       F  0.09634810  0.23275252  0.81354528    -0.13100
F2080       F  0.03649858  0.25185796  0.83185236    -0.15500
F2081       F  0.12600540  0.34231398  0.80110844    -0.15500
F2082       F  0.06743563  0.36062658  0.81798388    -0.13100
C2083       C  0.05686411  0.17520294  0.72709553     0.24900
C2084       C  0.03043419  0.19532209  0.73209977    -0.23200
C2085       C  0.03563033  0.22775256  0.73705336     0.19800
C2086       C  0.06634386  0.24022119  0.73466114     0.24800
C2087       C  0.09278916  0.22040936  0.72742413    -0.23100
C2088       C  0.08766561  0.18752815  0.72483438     0.19700
F2089       F  0.11221079  0.16724276  0.71908780    -0.13100
F2090       F  0.05269441  0.14352034  0.72323212    -0.15500
F2091       F  0.06968025  0.27206581  0.73815535    -0.15500
F2092       F  0.01073601  0.24793753  0.74168332    -0.13100
C2093       C  0.34990262  0.31134824  0.81317554     0.24900
C2094       C  0.34257514  0.30574638  0.78100248    -0.23200
C2095       C  0.36770925  0.30606810  0.75866123     0.19800
C2096       C  0.39963029  0.31023768  0.76880642     0.24800
C2097       C  0.40683922  0.31463708  0.80142360    -0.23100
C2098       C  0.38115405  0.31555362  0.82318598     0.19700
F2099       F  0.38600234  0.31952190  0.85491106    -0.13100
F2100       F  0.32656844  0.31217159  0.83562323    -0.15500
F2101       F  0.42330893  0.30986537  0.74678569    -0.15500
F2102       F  0.36163720  0.30075554  0.72739848    -0.13100
C2103       C  0.40588119  0.21038589  0.68632811     0.24900
C2104       C  0.43017752  0.21507090  0.70895174    -0.23200
C2105       C  0.42184083  0.22530887  0.73949910     0.19800
C2106       C  0.38976956  0.22815295  0.74817135     0.24800
C2107       C  0.36509711  0.22137904  0.72617338    -0.23100
C2108       C  0.37374097  0.21389539  0.69468114     0.19700
F2109       F  0.35121287  0.20849429  0.67221783    -0.13100
F2110       F  0.41327817  0.20114701  0.65627645    -0.15500
F2111       F  0.38315512  0.23634463  0.77870695    -0.15500
F2112       F  0.44463603  0.22998485  0.76188975    -0.13100
C2113       C  0.17313464  0.38956422  0.71652768     0.24900
C2114       C  0.20483325  0.37828380  0.71424539    -0.23200
C2115       C  0.22838001  0.39965510  0.70344504     0.19800
C2116       C  0.22021319  0.43121751  0.69476415     0.24800
C2117       C  0.18839913  0.44189826  0.69663506    -0.23100
C2118       C  0.16516864  0.42074235  0.70789135     0.19700
F2119       F  0.13433525  0.43032600  0.71051058    -0.13100
F2120       F  0.14933928  0.37029882  0.72685088    -0.15500
F2121       F  0.24311846  0.45088556  0.68332007    -0.15500
F2122       F  0.25924309  0.39015055  0.70143228    -0.13100
C2123       C  0.29789660  0.40725080  0.80860816     0.24900
C2124       C  0.26641735  0.40089206  0.79916636    -0.23200
C2125       C  0.24705146  0.42678021  0.78891466     0.19800
C2126       C  0.25825329  0.45799772  0.78986380     0.24800
C2127       C  0.28886860  0.46433656  0.80139302    -0.23100
C2128       C  0.30881799  0.43857322  0.81005399     0.19700
F2129       F  0.33894570  0.44371804  0.82044450    -0.13100
F2130       F  0.31806295  0.38332529  0.81722705    -0.15500
F2131       F  0.23826190  0.48215238  0.78144954    -0.15500
F2132       F  0.21666406  0.42230953  0.77897229    -0.13100
C2133       C  0.27867260  0.27044742  0.62124696     0.24900
C2134       C  0.26102167  0.24863844  0.64014058    -0.23200
C2135       C  0.24857533  0.22185891  0.62437094     0.19800
C2136       C  0.25463585  0.21634211  0.59188861     0.24800
C2137       C  0.27311379  0.23729908  0.57327487    -0.23100
C2138       C  0.28479080  0.26474104  0.58834684     0.19700
F2139       F  0.30362691  0.28514612  0.57176650    -0.13100
F2140       F  0.29098695  0.29678307  0.63477434    -0.15500
F2141       F  0.24335480  0.18931545  0.57874845    -0.15500
F2142       F  0.23087832  0.20011903  0.64052138    -0.13100
C2143       C  0.14196726  0.33001696  0.58672304     0.24900
C2144       C  0.14230691  0.30620564  0.56364808    -0.23200
C2145       C  0.15205916  0.27538691  0.57188479     0.19800
C2146       C  0.16159577  0.26822605  0.60283394     0.24800
C2147       C  0.16180917  0.29203464  0.62636800    -0.23100
C2148       C  0.15178956  0.32307010  0.61792704     0.19700
F2149       F  0.15186325  0.34679568  0.63958342    -0.13100
F2150       F  0.13350584  0.36024287  0.57867481    -0.15500
F2151       F  0.17033535  0.23773134  0.60950105    -0.15500
F2152       F  0.15235672  0.25205967  0.54975380    -0.13100
C2153       C  0.73351081  0.11408009  0.82815964     0.24900
C2154       C  0.71614451  0.13140381  0.80494401    -0.23200
C2155       C  0.69361198  0.11501607  0.78636769     0.19800
C2156       C  0.68832393  0.08274378  0.79103400     0.24800
C2157       C  0.70392720  0.06595000  0.81539957    -0.23100
C2158       C  0.72685104  0.08166909  0.83386568     0.19700
F2159       F  0.74109439  0.06628994  0.85871453    -0.13100
F2160       F  0.75511734  0.12891200  0.84677120    -0.15500
F2161       F  0.66542506  0.06839329  0.77353986    -0.15500
F2162       F  0.67549857  0.13032196  0.76410640    -0.13100
C2163       C  0.81444063  0.07447596  0.73447407     0.24900
C2164       C  0.79381286  0.04835878  0.73168304    -0.23200
C2165       C  0.76099939  0.05411959  0.72943621     0.19800
C2166       C  0.74918469  0.08537523  0.72794652     0.24800
C2167       C  0.76994846  0.11174188  0.72947781    -0.23100
C2168       C  0.80272085  0.10570115  0.73357710     0.19700
F2169       F  0.82378168  0.12994439  0.73544649    -0.13100
F2170       F  0.84643758  0.06972882  0.73588704    -0.15500
F2171       F  0.71756267  0.08958298  0.72266327    -0.15500
F2172       F  0.74063520  0.02959264  0.72531944    -0.13100
C2173       C  0.67122329  0.38454718  0.76237886     0.24900
C2174       C  0.69198835  0.36669477  0.78202661    -0.23200
C2175       C  0.70611191  0.38183751  0.80851366     0.19800
C2176       C  0.69883207  0.41311830  0.81570429     0.24800
C2177       C  0.67738546  0.43051728  0.79692091    -0.23100
C2178       C  0.66382573  0.41632292  0.76994024     0.19700
F2179       F  0.64204248  0.43255631  0.75216521    -0.13100
F2180       F  0.65689154  0.37089547  0.73704552    -0.15500
F2181       F  0.71154818  0.42600070  0.84237105    -0.15500
F2182       F  0.72649007  0.36624298  0.82853676    -0.13100
C2183       C  0.76868491  0.39232019  0.69589100     0.24900
C2184       C  0.77130570  0.38584422  0.72886549    -0.23200
C2185       C  0.77090251  0.41203744  0.74987546     0.19800
C2186       C  0.77095814  0.44342090  0.73816212     0.24800
C2187       C  0.77127968  0.44962562  0.70526646    -0.23100
C2188       C  0.76874198  0.42380383  0.68430423     0.19700
F2189       F  0.76846435  0.42909517  0.65228222    -0.13100
F2190       F  0.76721549  0.36828657  0.67465027    -0.15500
F2191       F  0.77419485  0.46762024  0.75900881    -0.15500
F2192       F  0.77265253  0.40756635  0.78194012    -0.13100
C2193       C  0.78449797  0.24710747  0.90455622     0.24900
C2194       C  0.76468415  0.26764481  0.88637743    -0.23200
C2195       C  0.75131245  0.29441209  0.90147376     0.19800
C2196       C  0.75862943  0.30124950  0.93300457     0.24800
C2197       C  0.77959509  0.28183968  0.95060184    -0.23100
C2198       C  0.79202500  0.25428715  0.93645247     0.19700
F2199       F  0.81304626  0.23559217  0.95270341    -0.13100
F2200       F  0.79765618  0.22091970  0.89117504    -0.15500
F2201       F  0.74614258  0.32795414  0.94609502    -0.15500
F2202       F  0.73137015  0.31465867  0.88565930    -0.13100
C2203       C  0.69059525  0.23594128  0.93076396     0.24900
C2204       C  0.68802515  0.21372552  0.90563767    -0.23200
C2205       C  0.69042115  0.18119888  0.91339125     0.19800
C2206       C  0.69320389  0.17119115  0.94525928     0.24800
C2207       C  0.69411315  0.19332502  0.97020642    -0.23100
C2208       C  0.69384991  0.22577590  0.96256487     0.19700
F2209       F  0.69367646  0.24768733  0.98608297    -0.13100
F2210       F  0.68823754  0.26767985  0.92504539    -0.15500
F2211       F  0.69309393  0.13956321  0.95202200    -0.15500
F2212       F  0.68900038  0.15887399  0.89034299    -0.13100
C2213       C  0.89520756  0.18180677  0.76867318     0.24900
C2214       C  0.91297396  0.19898281  0.74597536    -0.23200
C2215       C  0.89868871  0.22447558  0.72963072     0.19800
C2216       C  0.86661373  0.23168279  0.73438976     0.24800
C2217       C  0.84824611  0.21414682  0.75656506    -0.23100
C2218       C  0.86316394  0.18968037  0.77438238     0.19700
F2219       F  0.84621804  0.17187418  0.79550322    -0.13100
F2220       F  0.90827447  0.15611736  0.78368039    -0.15500
F2221       F  0.85330633  0.25509184  0.71614299    -0.15500
F2222       F  0.91522935  0.24077179  0.70696974    -0.13100
C2223       C  0.87355522  0.30216183  0.83795922     0.24900
C2224       C  0.86635928  0.30094821  0.80520926    -0.23200
C2225       C  0.89207102  0.30206978  0.78319805     0.19800
C2226       C  0.92365584  0.30498907  0.79367726     0.24800
C2227       C  0.93046825  0.30747005  0.82626966    -0.23100
C2228       C  0.90510301  0.30561556  0.84827515     0.19700
F2229       F  0.91082262  0.30813385  0.88001589    -0.13100
F2230       F  0.85005251  0.30078393  0.86016971    -0.15500
F2231       F  0.94728894  0.30797678  0.77174420    -0.15500
F2232       F  0.88678894  0.30212454  0.75126015    -0.13100
C2233       C  0.59519966  0.25255051  0.71371108     0.24900
C2234       C  0.61324799  0.23144015  0.73299551    -0.23200
C2235       C  0.59773184  0.20508778  0.74707530     0.19800
C2236       C  0.56584067  0.19920264  0.74086259     0.24800
C2237       C  0.54838663  0.21908584  0.72027315    -0.23100
C2238       C  0.56295329  0.24624451  0.70721810     0.19700
F2239       F  0.54667786  0.26533678  0.68654240    -0.13100
F2240       F  0.60900647  0.27838125  0.70001340    -0.15500
F2241       F  0.55230052  0.17271629  0.75365092    -0.15500
F2242       F  0.61341640  0.18432266  0.76663138    -0.13100
C2243       C  0.53468085  0.27142927  0.80089438     0.24900
C2244       C  0.52729879  0.30386664  0.79921993    -0.23200
C2245       C  0.55258951  0.32575835  0.79763685     0.19800
C2246       C  0.58440602  0.31565390  0.80060373     0.24800
C2247       C  0.59178181  0.28328945  0.80566001    -0.23100
C2248       C  0.56638776  0.26121809  0.80447194     0.19700
F2249       F  0.57172969  0.22968118  0.80908695    -0.13100
F2250       F  0.51095477  0.24974139  0.80280306    -0.15500
F2251       F  0.60775061  0.33781670  0.79990242    -0.15500
F2252       F  0.54620369  0.35741554  0.79609573    -0.13100
C2253       C  0.76856713  0.26104307  0.63334855     0.24900
C2254       C  0.74686792  0.28131676  0.64926471    -0.23200
C2255       C  0.73432032  0.30775984  0.63266249     0.19800
C2256       C  0.74518263  0.31493070  0.60163817     0.24800
C2257       C  0.76755176  0.29500098  0.58669182    -0.23100
C2258       C  0.77809018  0.26747774  0.60230394     0.19700
F2259       F  0.80035959  0.24841898  0.58862150    -0.13100
F2260       F  0.78295745  0.23618110  0.64857080    -0.15500
F2261       F  0.73571203  0.34237045  0.58712194    -0.15500
F2262       F  0.71415794  0.32817423  0.64742612    -0.13100
C2263       C  0.71890306  0.19307919  0.60821873     0.24900
C2264       C  0.69646486  0.19719674  0.63311269    -0.23200
C2265       C  0.66408264  0.20056382  0.62472908     0.19800
C2266       C  0.65442754  0.19812958  0.59274529     0.24800
C2267       C  0.67685633  0.19290716  0.56829500    -0.23100
C2268       C  0.70920361  0.19131419  0.57630689     0.19700
F2269       F  0.73131791  0.18518391  0.55352383    -0.13100
F2270       F  0.75029553  0.18877313  0.61469515    -0.15500
F2271       F  0.62290299  0.19986036  0.58569240    -0.15500
F2272       F  0.64158792  0.20558394  0.64743455    -0.13100
C2273       C  0.76727243  0.69266479  0.08829345     0.24900
C2274       C  0.79245338  0.70515427  0.07061684    -0.23200
C2275       C  0.81141253  0.72908803  0.08391714     0.19800
C2276       C  0.80578305  0.73947369  0.11530916     0.24800
C2277       C  0.78190820  0.72502294  0.13391826    -0.23100
C2278       C  0.76240710  0.70184790  0.11957154     0.19700
F2279       F  0.73935400  0.68637879  0.13624933    -0.13100
F2280       F  0.74905352  0.66912246  0.07618779    -0.15500
F2281       F  0.82521510  0.76150142  0.12819892    -0.15500
F2282       F  0.83670072  0.74061018  0.06740270    -0.13100
C2283       C  0.70174573  0.76817499  0.06218304     0.24900
C2284       C  0.70024110  0.80076261  0.05540389    -0.23200
C2285       C  0.70125490  0.82229410  0.08087167     0.19800
C2286       C  0.70249122  0.81137891  0.11260839     0.24800
C2287       C  0.70180341  0.77853171  0.11965945    -0.23100
C2288       C  0.70185251  0.75714888  0.09380589     0.19700
F2289       F  0.69965611  0.72537087  0.09881262    -0.13100
F2290       F  0.69969323  0.74684093  0.03824811    -0.15500
F2291       F  0.70309557  0.83309616  0.13629687    -0.15500
F2292       F  0.69934513  0.85405930  0.07499164    -0.13100
C2293       C  0.75383774  0.68812912  0.39220903     0.24900
C2294       C  0.77357472  0.70598079  0.37161898    -0.23200
C2295       C  0.80084120  0.72060288  0.38463946     0.19800
C2296       C  0.80886756  0.71631438  0.41651782     0.24800
C2297       C  0.79044580  0.69704990  0.43648753    -0.23100
C2298       C  0.76240131  0.68349673  0.42449294     0.19700
F2299       F  0.74445625  0.66433721  0.44344004    -0.13100
F2300       F  0.72721430  0.67407883  0.38089357    -0.15500
F2301       F  0.83592970  0.72980039  0.42764117    -0.15500
F2302       F  0.82059844  0.73873416  0.36645340    -0.13100
C2303       C  0.69072970  0.77726638  0.39929336     0.24900
C2304       C  0.72308029  0.78178091  0.39178261    -0.23200
C2305       C  0.74517087  0.78440454  0.41706993     0.19800
C2306       C  0.73473290  0.78543249  0.44873966     0.24800
C2307       C  0.70215895  0.78420661  0.45571259    -0.23100
C2308       C  0.68041670  0.77860703  0.43095530     0.19700
F2309       F  0.64877065  0.77669456  0.43731008    -0.13100
F2310       F  0.66880255  0.77280625  0.37600586    -0.15500
F2311       F  0.75613941  0.79112889  0.47220506    -0.15500
F2312       F  0.77669332  0.78842984  0.41122593    -0.13100
C2313       C  0.88992260  0.79146543  0.24647922     0.24900
C2314       C  0.87247640  0.77028726  0.26596490    -0.23200
C2315       C  0.88879587  0.75382890  0.29072849     0.19800
C2316       C  0.92036273  0.76071867  0.29777682     0.24800
C2317       C  0.93664111  0.78410067  0.28047072    -0.23100
C2318       C  0.92189358  0.79834049  0.25376189     0.19700
F2319       F  0.93768248  0.82045599  0.23617254    -0.13100
F2320       F  0.87568348  0.80679658  0.22161615    -0.15500
F2321       F  0.93464235  0.74567567  0.32286577    -0.15500
F2322       F  0.87399150  0.73166599  0.30918362    -0.13100
C2323       C  0.89474927  0.71643485  0.18641992     0.24900
C2324       C  0.88834786  0.70185005  0.21614349    -0.23200
C2325       C  0.91434967  0.69532873  0.23676471     0.19800
C2326       C  0.94565963  0.70165747  0.22729983     0.24800
C2327       C  0.95205825  0.71436945  0.19696147    -0.23100
C2328       C  0.92629304  0.72232373  0.17685255     0.19700
F2329       F  0.93187554  0.73418296  0.14712880    -0.13100
F2330       F  0.87061631  0.72454645  0.16636174    -0.15500
F2331       F  0.97000787  0.69220011  0.24657333    -0.15500
F2332       F  0.90982030  0.68114399  0.26565741    -0.13100
C2333       C  0.74982812  0.87754165  0.19656143     0.24900
C2334       C  0.73331197  0.85845937  0.21877109    -0.23200
C2335       C  0.70679245  0.87197329  0.23486596     0.19800
C2336       C  0.69664618  0.90275398  0.22825435     0.24800
C2337       C  0.71213431  0.92123405  0.20527420    -0.23100
C2338       C  0.73905728  0.90874534  0.18963757     0.19700
F2339       F  0.75364372  0.92601723  0.16642357    -0.13100
F2340       F  0.77512702  0.86557455  0.18044690    -0.15500
F2341       F  0.67030012  0.91404952  0.24332517    -0.15500
F2342       F  0.68975314  0.85533113  0.25693632    -0.13100
C2343       C  0.82771562  0.87967549  0.30035834     0.24900
C2344       C  0.79493630  0.87355634  0.29735314    -0.23200
C2345       C  0.77402787  0.89978919  0.29271180     0.19800
C2346       C  0.78522442  0.93102113  0.29343792     0.24800
C2347       C  0.81739996  0.93695559  0.29960686    -0.23100
C2348       C  0.83873821  0.91095275  0.30164019     0.19700
F2349       F  0.87029184  0.91580373  0.30657225    -0.13100
F2350       F  0.84913034  0.85553890  0.30359069    -0.15500
F2351       F  0.76397625  0.95537547  0.29100647    -0.15500
F2352       F  0.74225193  0.89560632  0.28929469    -0.13100
C2353       C  0.73708247  0.60424158  0.22014814     0.24900
C2354       C  0.72015674  0.62209170  0.24295651    -0.23200
C2355       C  0.69900967  0.60597669  0.26363244     0.19800
C2356       C  0.69343679  0.57326865  0.26001806     0.24800
C2357       C  0.70955917  0.55612840  0.23634597    -0.23100
C2358       C  0.73202158  0.57174597  0.21719011     0.19700
F2359       F  0.74723820  0.55584152  0.19356951    -0.13100
F2360       F  0.75792855  0.61828336  0.19971232    -0.15500
F2361       F  0.67056825  0.55894490  0.27787440    -0.15500
F2362       F  0.68222974  0.62215033  0.28592693    -0.13100
C2363       C  0.80693711  0.57749773  0.26380944     0.24900
C2364       C  0.79689258  0.60148023  0.28505531    -0.23200
C2365       C  0.78239023  0.59211148  0.31386213     0.19800
C2366       C  0.77939677  0.55972129  0.32184879     0.24800
C2367       C  0.79046889  0.53592641  0.30112340    -0.23100
C2368       C  0.80375236  0.54523083  0.27180492     0.19700
F2369       F  0.81659384  0.52307456  0.25223663    -0.13100
F2370       F  0.82160999  0.58517907  0.23590525    -0.15500
F2371       F  0.76763442  0.55152320  0.35094060    -0.15500
F2372       F  0.77150779  0.61426184  0.33453233    -0.13100
C2373       C  0.61997775  0.74343287  0.31849263     0.24900
C2374       C  0.63703364  0.75982480  0.29447668    -0.23200
C2375       C  0.62121140  0.78458094  0.27756768     0.19800
C2376       C  0.58982834  0.79284533  0.28451883     0.24800
C2377       C  0.57312065  0.77725109  0.30884816    -0.23100
C2378       C  0.58833124  0.75240567  0.32591094     0.19700
F2379       F  0.57325360  0.73812908  0.35082216    -0.13100
F2380       F  0.63441855  0.72013765  0.33596709    -0.15500
F2381       F  0.57614394  0.81762257  0.26847099    -0.15500
F2382       F  0.63624885  0.80166128  0.25443744    -0.13100
C2383       C  0.58851754  0.72845584  0.21273974     0.24900
C2384       C  0.61381576  0.70590233  0.21243772    -0.23200
C2385       C  0.60608265  0.67348854  0.21100620     0.19800
C2386       C  0.57443220  0.66412232  0.20707404     0.24800
C2387       C  0.54971888  0.68680392  0.20482420    -0.23100
C2388       C  0.55684837  0.71890364  0.20916180     0.19700
F2389       F  0.53356591  0.74136358  0.20691178    -0.13100
F2390       F  0.59426936  0.76009005  0.21431999    -0.15500
F2391       F  0.56801279  0.63275983  0.20379566    -0.15500
F2392       F  0.62916554  0.65077540  0.21208130    -0.13100
C2393       C  0.79488833  0.90662845  0.70222403     0.24900
C2394       C  0.79863602  0.92881725  0.72682757    -0.23200
C2395       C  0.79442123  0.91833195  0.75861601     0.19800
C2396       C  0.78715895  0.88616782  0.76546528     0.24800
C2397       C  0.78356760  0.86416991  0.74056437    -0.23100
C2398       C  0.78771418  0.87500619  0.70894867     0.19700
F2399       F  0.78500718  0.85480456  0.68407284    -0.13100
F2400       F  0.79774029  0.91558798  0.67111188    -0.15500
F2401       F  0.78250646  0.87688300  0.79621313    -0.15500
F2402       F  0.79785202  0.93896845  0.78297099    -0.13100
C2403       C  0.67850024  0.89148222  0.82529992     0.24900
C2404       C  0.69311544  0.88470184  0.79592558    -0.23200
C2405       C  0.70533605  0.91047533  0.77765176     0.19800
C2406       C  0.70207062  0.94190434  0.78795901     0.24800
C2407       C  0.68586697  0.94863249  0.81639257    -0.23100
C2408       C  0.67479399  0.92296564  0.83527923     0.19700
F2409       F  0.65979949  0.92832502  0.86343291    -0.13100
F2410       F  0.66641432  0.86783214  0.84388195    -0.15500
F2411       F  0.71310477  0.96581492  0.76902847    -0.15500
F2412       F  0.71954433  0.90561961  0.74902051    -0.13100
C2413       C  0.87858475  0.74862453  0.80326543     0.24900
C2414       C  0.85622104  0.72525716  0.79491521    -0.23200
C2415       C  0.86697326  0.69359337  0.79182142     0.19800
C2416       C  0.89857273  0.68535604  0.79756767     0.24800
C2417       C  0.92076527  0.70824480  0.80676941    -0.23100
C2418       C  0.91070048  0.74016167  0.80910791     0.19700
F2419       F  0.93157532  0.76286157  0.81804540    -0.13100
F2420       F  0.86955539  0.77954781  0.80533592    -0.15500
F2421       F  0.90753267  0.65452178  0.79404121    -0.15500
F2422       F  0.84680180  0.67004403  0.78337352    -0.13100
C2423       C  0.88269146  0.81908723  0.69924305     0.24900
C2424       C  0.87712082  0.78729327  0.70841823    -0.23200
C2425       C  0.90375937  0.76727403  0.71445038     0.19800
C2426       C  0.93481669  0.77823279  0.70933840     0.24800
C2427       C  0.93994700  0.80930429  0.69807413    -0.23100
C2428       C  0.91364371  0.82987817  0.69417665     0.19700
F2429       F  0.91781406  0.86050476  0.68456131    -0.13100
F2430       F  0.85822949  0.83971113  0.69391309    -0.15500
F2431       F  0.95964687  0.75774559  0.71332162    -0.15500
F2432       F  0.89996388  0.73658299  0.72395884    -0.13100
C2433       C  0.68585844  0.78634938  0.88075090     0.24900
C2434       C  0.71835485  0.78537427  0.87222270    -0.23200
C2435       C  0.74110192  0.79136243  0.89616739     0.19800
C2436       C  0.73131568  0.79834639  0.92769083     0.24800
C2437       C  0.69864268  0.79983618  0.93562095    -0.23100
C2438       C  0.67627261  0.79336467  0.91166753     0.19700
F2439       F  0.64457064  0.79347070  0.91814518    -0.13100
F2440       F  0.66274560  0.78076393  0.85894786    -0.15500
F2441       F  0.75368068  0.80436901  0.95012931    -0.15500
F2442       F  0.77265099  0.78965072  0.88935568    -0.13100
C2443       C  0.80388921  0.67533271  0.89763563     0.24900
C2444       C  0.77543561  0.69178576  0.89028741    -0.23200
C2445       C  0.75730361  0.70415809  0.91581780     0.19800
C2446       C  0.76680082  0.69943812  0.94753656     0.24800
C2447       C  0.79430044  0.68161510  0.95484268    -0.23100
C2448       C  0.81301808  0.67007667  0.92947336     0.19700
F2449       F  0.84036364  0.65366550  0.93541594    -0.13100
F2450       F  0.82254555  0.66338902  0.87413324    -0.15500
F2451       F  0.74812729  0.71119685  0.97113163    -0.15500
F2452       F  0.72979826  0.72041627  0.91035937    -0.13100
C2453       C  0.60357366  0.69606970  0.74994304     0.24900
C2454       C  0.62227950  0.71492080  0.77020763    -0.23200
C2455       C  0.60724191  0.72915202  0.79670936     0.19800
C2456       C  0.57537081  0.72355300  0.80361977     0.24800
C2457       C  0.55728407  0.70337816  0.78471618    -0.23100
C2458       C  0.57127488  0.69014913  0.75732479     0.19700
F2459       F  0.55425283  0.67023496  0.73879722    -0.13100
F2460       F  0.61677523  0.68226088  0.72396803    -0.15500
F2461       F  0.56245007  0.73663747  0.83017161    -0.15500
F2462       F  0.62340531  0.74836495  0.81670142    -0.13100
C2463       C  0.59777729  0.81145506  0.68610265     0.24900
C2464       C  0.60465187  0.80308263  0.71806643    -0.23200
C2465       C  0.57859311  0.79785222  0.73899532     0.19800
C2466       C  0.54706640  0.80099346  0.72843850     0.24800
C2467       C  0.54036623  0.81021950  0.69691368    -0.23100
C2468       C  0.56607978  0.81527199  0.67579254     0.19700
F2469       F  0.56052484  0.82398806  0.64499441    -0.13100
F2470       F  0.62162478  0.81652472  0.66480023    -0.15500
F2471       F  0.52304950  0.79690598  0.74976444    -0.15500
F2472       F  0.58328619  0.79091721  0.77031481    -0.13100
C2473       C  0.80076975  0.59416341  0.69922321     0.24900
C2474       C  0.77792750  0.56964907  0.69854378    -0.23200
C2475       C  0.74565077  0.57818438  0.70320034     0.19800
C2476       C  0.73676703  0.61023490  0.70868795     0.24800
C2477       C  0.76003109  0.63421706  0.71018250    -0.23100
C2478       C  0.79200060  0.62557493  0.70494550     0.19700
F2479       F  0.81536826  0.64771891  0.70579683    -0.13100
F2480       F  0.83228598  0.58790117  0.69524440    -0.15500
F2481       F  0.70571764  0.61748788  0.71407608    -0.15500
F2482       F  0.72271419  0.55566349  0.70243639    -0.13100
C2483       C  0.66711872  0.60605730  0.80766170     0.24900
C2484       C  0.69869804  0.61150710  0.79773150    -0.23200
C2485       C  0.71745441  0.58486662  0.78893088     0.19800
C2486       C  0.70559434  0.55385050  0.79191653     0.24800
C2487       C  0.67496916  0.54856465  0.80430814    -0.23100
C2488       C  0.65555593  0.57508780  0.81107783     0.19700
F2489       F  0.62533240  0.57105317  0.82185719    -0.13100
F2490       F  0.64752026  0.63058244  0.81531974    -0.15500
F2491       F  0.72493692  0.52898737  0.78464749    -0.15500
F2492       F  0.74785238  0.58848493  0.77855077    -0.13100
C2493       C  0.70303283  0.75078456  0.61474992     0.24900
C2494       C  0.70321543  0.77354085  0.63911130    -0.23200
C2495       C  0.69961807  0.80582492  0.63063508     0.19800
C2496       C  0.69581422  0.81522935  0.59894424     0.24800
C2497       C  0.69511845  0.79270189  0.57439479    -0.23100
C2498       C  0.69914573  0.76029385  0.58258842     0.19700
F2499       F  0.69897682  0.73781839  0.55965026    -0.13100
F2500       F  0.70787249  0.71959687  0.62188283    -0.15500
F2501       F  0.69343889  0.84683251  0.59238478    -0.15500
F2502       F  0.69997819  0.82872793  0.65319606    -0.13100
C2503       C  0.80040380  0.68398083  0.61211841     0.24900
C2504       C  0.79155546  0.71558759  0.61870655    -0.23200
C2505       C  0.78547899  0.73650513  0.59262886     0.19800
C2506       C  0.78934433  0.72636322  0.56114131     0.24800
C2507       C  0.79985674  0.69537426  0.55492580    -0.23100
C2508       C  0.80454648  0.67409174  0.58067437     0.19700
F2509       F  0.81391439  0.64365317  0.57540798    -0.13100
F2510       F  0.80616118  0.66267428  0.63601556    -0.15500
F2511       F  0.78495786  0.74756122  0.53684737    -0.15500
F2512       F  0.77707400  0.76729453  0.59734461    -0.13100
loop_ 
_geom_bond_atom_site_label_1 
_geom_bond_atom_site_label_2 
_geom_bond_distance 
_geom_bond_site_symmetry_2 
_ccdc_geom_bond_type 
O1           C28   1.276       .  A
O1          Mn27   2.114       .  S
C2           O35   1.275       .  A
C2           O32   1.269       .  A
C2         C2504   1.494       .  S
O3          Mn10   2.176       .  S
O3          Mn21   2.103       .  S
O3          Mn25   2.183       .  S
O3          Mn27   2.115       .  S
O4           C14   1.270       .  A
O4          Mn38   2.088       .  S
O5           C28   1.270       .  A
O5          Mn21   2.087       .  S
O6           C33   1.259       .  A
O6          Mn25   2.155       .  S
O7          Mn38   1.949       .  S
O7          Mn27   1.958       .  S
O7           C23   1.214       .  S
C8           O11   1.259       .  A
C8         C2397   1.494       .  S
C8           O34   1.219       .  S
O9          Mn29   2.115       .  S
O9          Mn10   2.192       .  S
O9          Mn43   2.107       .  S
O9          Mn25   2.184       .  S
Mn10         O39   2.140       .  S
Mn10         O15   2.148       .  S
Mn10         O42   2.152       .  S
Mn10         O16   2.181       .  S
O11         Mn25   2.139       .  S
O12          C14   1.274       .  A
O12         Mn19   2.099       .  S
C13          O39   1.258       .  A
C13        C2494   1.487       .  S
C13          O26   1.214       .  S
C14        C2424   1.493       .  S
O15          C40   1.259       .  A
O16         Mn19   2.114       .  S
O16         Mn38   2.112       .  S
O16         Mn25   2.183       .  S
O17         Mn21   1.960       .  S
O17         Mn43   1.955       .  S
O17          C40   1.215       .  S
C18          O44   1.268       .  A
C18          O20   1.279       .  A
C18        C2404   1.499       .  S
Mn19         O32   2.085       .  S
Mn19         O34   1.959       .  S
Mn19         O26   1.949       .  S
O20         Mn43   2.125       .  S
Mn21         O37   2.115       .  S
Mn21         O31   1.960       .  S
O22          C24   1.271       .  A
O22         Mn27   2.093       .  S
C23          O41   1.258       .  A
C23        C2414   1.493       .  S
C24          O37   1.278       .  A
C24        C2484   1.501       .  S
Mn25         O41   2.145       .  S
O26         Mn29   1.951       .  S
Mn27         O45   1.958       .  S
C28        C2444   1.498       .  S
Mn29         O36   2.127       .  S
Mn29         O44   2.079       .  S
Mn29         O34   1.963       .  S
C30          O36   1.278       .  A
C30          O46   1.269       .  A
C30        C2464   1.505       .  S
O31         Mn43   1.955       .  S
O31          C33   1.215       .  S
C33        C2434   1.499       .  S
O35         Mn38   2.104       .  S
Mn38         O45   1.959       .  S
C40        C2454   1.498       .  S
O42          C47   1.260       .  A
Mn43         O46   2.087       .  S
O45          C47   1.217       .  S
C47        C2477   1.498       .  S
O48          C75   1.278       .  A
O48         Mn74   2.129       .  S
C49          O82   1.278       .  A
C49          O79   1.267       .  A
C49        C2384   1.494       .  S
O50         Mn57   2.180       .  S
O50         Mn68   2.096       .  S
O50         Mn72   2.185       .  S
O50         Mn74   2.092       .  S
O51          C61   1.270       .  A
O51         Mn85   2.098       .  S
O52          C75   1.267       .  A
O52         Mn68   2.084       .  S
O53          C80   1.262       .  A
O53         Mn72   2.142       .  S
O54         Mn85   2.012       .  S
O54         Mn74   2.007       .  S
O54          C70   1.236       .  A
C55          O58   1.262       .  A
C55        C2334   1.493       .  S
C55          O81   1.232       .  A
O56         Mn76   2.092       .  S
O56         Mn57   2.172       .  S
O56         Mn90   2.101       .  S
O56         Mn72   2.174       .  S
Mn57         O86   2.156       .  S
Mn57         O62   2.148       .  S
Mn57         O89   2.114       .  S
Mn57         O63   2.173       .  S
O58         Mn72   2.169       .  S
O59          C61   1.273       .  A
O59         Mn66   2.105       .  S
C60          O86   1.258       .  A
C60        C2374   1.499       .  S
C60          O73   1.213       .  S
C61        C2287   1.499       .  S
O62          C87   1.256       .  A
O63         Mn66   2.099       .  S
O63         Mn85   2.108       .  S
O63         Mn72   2.190       .  S
O64         Mn68   1.944       .  S
O64         Mn90   1.940       .  S
O64          C87   1.210       .  S
C65          O91   1.271       .  A
C65          O67   1.276       .  A
C65        C2344   1.496       .  S
Mn66         O79   2.077       .  S
Mn66         O81   2.008       .  S
Mn66         O73   1.965       .  S
O67         Mn90   2.106       .  S
Mn68         O84   2.130       .  S
Mn68         O78   1.962       .  S
O69          C71   1.265       .  A
O69         Mn74   2.081       .  S
C70          O88   1.259       .  A
C70        C2277   1.488       .  S
C71          O84   1.279       .  A
C71        C2364   1.495       .  S
Mn72         O88   2.153       .  S
O73         Mn76   1.971       .  S
Mn74         O92   1.994       .  S
C75        C2324   1.498       .  S
Mn76         O83   2.092       .  S
Mn76         O91   2.092       .  S
Mn76         O81   2.009       .  S
C77          O83   1.272       .  A
C77          O93   1.268       .  A
C77        C2304   1.487       .  S
O78         Mn90   1.962       .  S
O78          C80   1.217       .  S
C80        C2314   1.494       .  S
O82         Mn85   2.113       .  S
Mn85         O92   2.002       .  S
C87        C2294   1.492       .  S
O89          C94   1.259       .  A
Mn90         O93   2.087       .  S
O92          C94   1.223       .  S
C94        C2354   1.491       .  S
O95         C122   1.278       .  A
O95        Mn121   2.123       .  S
C96         O129   1.275       .  A
C96         O126   1.271       .  A
C96        C2264   1.501       .  S
O97        Mn104   2.179       .  S
O97        Mn115   2.097       .  S
O97        Mn119   2.169       .  S
O97        Mn121   2.105       .  S
O98         C108   1.270       .  A
O98        Mn132   2.100       .  S
O99         C122   1.265       .  A
O99        Mn115   2.070       .  S
O100        C127   1.256       .  A
O100       Mn119   2.127       .  S
O101       Mn132   1.949       .  S
O101       Mn121   1.953       .  S
O101        C117   1.213       .  S
C102        O105   1.255       .  A
C102       C2217   1.486       .  S
C102        O128   1.218       .  S
O103       Mn123   2.107       .  S
O103       Mn104   2.178       .  S
O103       Mn137   2.111       .  S
O103       Mn119   2.181       .  S
Mn104       O133   2.137       .  S
Mn104       O109   2.151       .  S
Mn104       O136   2.126       .  S
Mn104       O110   2.179       .  S
O105       Mn119   2.116       .  S
O106        C108   1.275       .  A
O106       Mn113   2.107       .  S
C107        O133   1.259       .  A
C107       C2254   1.482       .  S
C107        O120   1.238       .  A
C108       C2167   1.498       .  S
O109        C134   1.259       .  A
O110       Mn113   2.104       .  S
O110       Mn132   2.112       .  S
O110       Mn119   2.172       .  S
O111       Mn115   2.007       .  S
O111       Mn137   2.016       .  S
O111        C134   1.235       .  A
C112        O138   1.267       .  A
C112        O114   1.278       .  A
C112       C2224   1.501       .  S
Mn113       O126   2.103       .  S
Mn113       O120   2.025       .  S
Mn113       O128   1.986       .  S
O114       Mn137   2.120       .  S
Mn115       O131   2.129       .  S
Mn115       O125   1.987       .  S
O116        C118   1.268       .  A
O116       Mn121   2.086       .  S
C117        O135   1.256       .  A
C117       C2154   1.492       .  S
C118        O131   1.279       .  A
C118       C2247   1.504       .  S
Mn119       O135   2.142       .  S
O120       Mn123   2.029       .  S
Mn121       O139   1.958       .  S
C122       C2204   1.497       .  S
Mn123       O130   2.127       .  S
Mn123       O138   2.086       .  S
Mn123       O128   1.981       .  S
C124        O130   1.279       .  A
C124        O140   1.270       .  A
C124       C2184   1.505       .  S
O125       Mn137   1.982       .  S
O125        C127   1.218       .  S
C127       C2194   1.493       .  S
O129       Mn132   2.112       .  S
Mn132       O139   1.961       .  S
C134       C2174   1.490       .  S
O136        C141   1.258       .  A
Mn137       O140   2.091       .  S
O139        C141   1.218       .  S
C141       C2234   1.490       .  S
O142        C169   1.264       .  A
O142       Mn168   2.063       .  S
C143        O176   1.269       .  A
C143        O173   1.264       .  A
C143       C2147   1.479       .  S
O144       Mn151   2.182       .  S
O144       Mn162   2.115       .  S
O144       Mn166   2.194       .  S
O144       Mn168   2.123       .  S
O145        C155   1.267       .  A
O145       Mn179   2.071       .  S
O146        C169   1.268       .  A
O146       Mn162   2.078       .  S
O147        C174   1.263       .  A
O147       Mn166   2.168       .  S
O148       Mn179   1.950       .  S
O148       Mn168   1.947       .  S
O148        C164   1.219       .  S
C149        O152   1.266       .  A
C149       C2054   1.506       .  S
C149        O175   1.214       .  S
O150       Mn170   2.102       .  S
O150       Mn151   2.165       .  S
O150       Mn184   2.113       .  S
O150       Mn166   2.180       .  S
Mn151       O180   2.164       .  S
Mn151       O156   2.157       .  S
Mn151       O183   2.145       .  S
Mn151       O157   2.188       .  S
O152       Mn166   2.186       .  S
O153        C155   1.279       .  A
O153       Mn160   2.121       .  S
C154        O180   1.263       .  A
C154       C2134   1.527       .  S
C154        O167   1.222       .  S
C155       C2087   1.494       .  S
O156        C181   1.264       .  A
O157       Mn160   2.102       .  S
O157       Mn179   2.115       .  S
O157       Mn166   2.182       .  S
O158       Mn162   1.952       .  S
O158       Mn184   1.962       .  S
O158        C181   1.219       .  S
C159        O185   1.263       .  A
C159        O161   1.280       .  A
C159       C2067   1.500       .  S
Mn160       O173   2.056       .  S
Mn160       O175   1.932       .  S
Mn160       O167   1.977       .  S
O161       Mn184   2.137       .  S
Mn162       O178   2.121       .  S
Mn162       O172   1.973       .  S
O163        C165   1.268       .  A
O163       Mn168   2.073       .  S
C164        O182   1.264       .  A
C164       C2077   1.504       .  S
C165        O178   1.278       .  A
C165       C2124   1.496       .  S
Mn166       O182   2.161       .  S
O167       Mn170   1.985       .  S
Mn168       O186   1.939       .  S
C169       C2044   1.450       .  S
Mn170       O177   2.117       .  S
Mn170       O185   2.057       .  S
Mn170       O175   1.944       .  S
C171        O177   1.279       .  A
C171        O187   1.271       .  A
C171       C2107   1.497       .  S
O172       Mn184   1.983       .  S
O172        C174   1.221       .  S
C174       C2034   1.526       .  S
O176       Mn179   2.087       .  S
Mn179       O186   1.947       .  S
C181       C2094   1.496       .  S
O183        C188   1.258       .  A
Mn184       O187   2.086       .  S
O186        C188   1.215       .  S
C188       C2114   1.499       .  S
O189        C216   1.277       .  A
O189       Mn215   2.109       .  S
C190        O223   1.279       .  A
C190        O220   1.266       .  A
C190       C2024   1.500       .  S
O191       Mn198   2.180       .  S
O191       Mn209   2.096       .  S
O191       Mn213   2.182       .  S
O191       Mn215   2.110       .  S
O192        C202   1.265       .  A
O192       Mn226   2.078       .  S
O193        C216   1.271       .  A
O193       Mn209   2.095       .  S
O194        C221   1.259       .  A
O194       Mn213   2.173       .  S
O195       Mn226   1.972       .  S
O195       Mn215   1.972       .  S
O195        C211   1.223       .  S
C196        O199   1.259       .  A
C196       C1914   1.487       .  S
C196        O222   1.232       .  A
O197       Mn217   2.102       .  S
O197       Mn198   2.184       .  S
O197       Mn231   2.094       .  S
O197       Mn213   2.192       .  S
Mn198       O227   2.138       .  S
Mn198       O203   2.139       .  S
Mn198       O230   2.140       .  S
Mn198       O204   2.171       .  S
O199       Mn213   2.163       .  S
O200        C202   1.279       .  A
O200       Mn207   2.132       .  S
C201        O227   1.258       .  A
C201       C2014   1.495       .  S
C201        O214   1.216       .  S
C202       C1984   1.499       .  S
O203        C228   1.256       .  A
O204       Mn207   2.096       .  S
O204       Mn226   2.109       .  S
O204       Mn213   2.191       .  S
O205       Mn209   1.975       .  S
O205       Mn231   1.962       .  S
O205        C228   1.213       .  S
C206        O232   1.270       .  A
C206        O208   1.273       .  A
C206       C1924   1.494       .  S
Mn207       O220   2.074       .  S
Mn207       O222   2.009       .  S
Mn207       O214   1.982       .  S
O208       Mn231   2.100       .  S
Mn209       O225   2.096       .  S
Mn209       O219   2.004       .  S
O210        C212   1.270       .  A
O210       Mn215   2.096       .  S
C211        O229   1.261       .  A
C211       C1974   1.496       .  S
C212        O225   1.273       .  A
C212       C1944   1.495       .  S
Mn213       O229   2.129       .  S
O214       Mn217   1.978       .  S
Mn215       O233   1.950       .  S
C216       C1964   1.499       .  S
Mn217       O224   2.121       .  S
Mn217       O232   2.093       .  S
Mn217       O222   2.010       .  S
C218        O224   1.278       .  A
C218        O234   1.266       .  A
C218       C2004   1.496       .  S
O219       Mn231   2.000       .  S
O219        C221   1.231       .  A
C221       C1954   1.492       .  S
O223       Mn226   2.128       .  S
Mn226       O233   1.954       .  S
C228       C1994   1.491       .  S
O230        C235   1.258       .  A
Mn231       O234   2.076       .  S
O233        C235   1.215       .  S
C235       C1934   1.495       .  S
O236        C263   1.267       .  A
O236       Mn262   2.070       .  S
C237        O270   1.265       .  A
C237        O267   1.267       .  A
C237       C1804   1.454       .  S
O238       Mn245   2.185       .  S
O238       Mn256   2.112       .  S
O238       Mn260   2.193       .  S
O238       Mn262   2.114       .  S
O239        C249   1.271       .  A
O239       Mn273   2.087       .  S
O240        C263   1.266       .  A
O240       Mn256   2.067       .  S
O241        C268   1.263       .  A
O241       Mn260   2.180       .  S
O242       Mn273   1.939       .  S
O242       Mn262   1.948       .  S
O242        C258   1.216       .  S
C243        O246   1.267       .  A
C243       C1874   1.501       .  S
C243        O269   1.220       .  S
O244       Mn264   2.106       .  S
O244       Mn245   2.163       .  S
O244       Mn278   2.096       .  S
O244       Mn260   2.176       .  S
Mn245       O274   2.184       .  S
Mn245       O250   2.177       .  S
Mn245       O277   2.138       .  S
Mn245       O251   2.195       .  S
O246       Mn260   2.165       .  S
O247        C249   1.276       .  A
O247       Mn254   2.107       .  S
C248        O274   1.266       .  A
C248       C1794   1.529       .  S
C248        O261   1.218       .  S
C249       C1904   1.493       .  S
O250        C275   1.267       .  A
O251       Mn254   2.114       .  S
O251       Mn273   2.120       .  S
O251       Mn260   2.183       .  S
O252       Mn256   1.944       .  S
O252       Mn278   1.956       .  S
O252        C275   1.214       .  S
C253        O279   1.266       .  A
C253        O255   1.279       .  A
C253       C1884   1.492       .  S
Mn254       O267   2.081       .  S
Mn254       O269   1.957       .  S
Mn254       O261   1.962       .  S
O255       Mn278   2.119       .  S
Mn256       O272   2.119       .  S
Mn256       O266   1.963       .  S
O257        C259   1.271       .  A
O257       Mn262   2.088       .  S
C258        O276   1.263       .  A
C258       C1894   1.509       .  S
C259        O272   1.278       .  A
C259       C1824   1.500       .  S
Mn260       O276   2.164       .  S
O261       Mn264   1.976       .  S
Mn262       O280   1.948       .  S
C263       C1867   1.476       .  S
Mn264       O271   2.125       .  S
Mn264       O279   2.071       .  S
Mn264       O269   1.958       .  S
C265        O271   1.280       .  A
C265        O281   1.268       .  A
C265       C1844   1.498       .  S
O266       Mn278   1.974       .  S
O266        C268   1.219       .  S
C268       C1854   1.531       .  S
O270       Mn273   2.070       .  S
Mn273       O280   1.960       .  S
C275       C1834   1.506       .  S
O277        C282   1.260       .  A
Mn278       O281   2.080       .  S
O280        C282   1.218       .  S
C282       C1814   1.495       .  S
O283        C310   1.279       .  A
O283       Mn309   2.114       .  S
C284        O317   1.278       .  A
C284        O314   1.268       .  A
C284       C1784   1.494       .  S
O285       Mn292   2.192       .  S
O285       Mn303   2.114       .  S
O285       Mn307   2.178       .  S
O285       Mn309   2.111       .  S
O286        C296   1.266       .  A
O286       Mn320   2.066       .  S
O287        C310   1.271       .  A
O287       Mn303   2.084       .  S
O288        C315   1.258       .  A
O288       Mn307   2.130       .  S
O289       Mn320   1.956       .  S
O289       Mn309   1.951       .  S
O289        C305   1.217       .  S
C290        O293   1.263       .  A
C290       C1674   1.531       .  S
C290        O316   1.222       .  S
O291       Mn311   2.105       .  S
O291       Mn292   2.184       .  S
O291       Mn325   2.117       .  S
O291       Mn307   2.191       .  S
Mn292       O321   2.167       .  S
Mn292       O297   2.154       .  S
Mn292       O324   2.178       .  S
Mn292       O298   2.170       .  S
O293       Mn307   2.173       .  S
O294        C296   1.278       .  A
O294       Mn301   2.116       .  S
C295        O321   1.266       .  A
C295       C1774   1.500       .  S
C295        O308   1.214       .  S
C296       C1704   1.490       .  S
O297        C322   1.260       .  A
O298       Mn301   2.099       .  S
O298       Mn320   2.099       .  S
O298       Mn307   2.158       .  S
O299       Mn303   1.943       .  S
O299       Mn325   1.942       .  S
O299        C322   1.214       .  S
C300        O326   1.265       .  A
C300        O302   1.270       .  A
C300       C1684   1.485       .  S
Mn301       O314   2.081       .  S
Mn301       O316   1.987       .  S
Mn301       O308   1.944       .  S
O302       Mn325   2.096       .  S
Mn303       O319   2.090       .  S
Mn303       O313   1.960       .  S
O304        C306   1.264       .  A
O304       Mn309   2.058       .  S
C305        O323   1.265       .  A
C305       C1694   1.503       .  S
C306        O319   1.270       .  A
C306       C1764   1.480       .  S
Mn307       O323   2.161       .  S
O308       Mn311   1.943       .  S
Mn309       O327   1.965       .  S
C310       C1727   1.495       .  S
Mn311       O318   2.109       .  S
Mn311       O326   2.063       .  S
Mn311       O316   1.973       .  S
C312        O318   1.278       .  A
C312        O328   1.274       .  A
C312       C1744   1.500       .  S
O313       Mn325   1.968       .  S
O313        C315   1.219       .  S
C315       C1714   1.488       .  S
O317       Mn320   2.113       .  S
Mn320       O327   1.976       .  S
C322       C1734   1.498       .  S
O324        C329   1.264       .  A
Mn325       O328   2.103       .  S
O327        C329   1.221       .  S
C329       C1754   1.533       .  S
C330       C1864   1.461       .  S
C330        N331   1.354       .  A
C330        N335   1.357       .  A
N331        C332   1.350       .  A
C332       C1664   1.446       .  S
C332        N333   1.346       .  A
N333        C334   1.352       .  A
C334       C1654   1.453       .  S
C334        N335   1.355       .  A
C336       C1857   1.519       .  S
C336        N337   1.386       .  A
C336        N341   1.362       .  A
N337        C338   1.386       .  A
C338       C1634   1.517       .  S
C338        N339   1.361       .  A
N339        C340   1.355       .  A
C340       C1647   1.492       .  S
C340        N341   1.355       .  A
C342       C1614   1.521       .  S
C342        N343   1.387       .  A
C342        N347   1.359       .  A
N343        C344   1.388       .  A
C344       C1757   1.521       .  S
C344        N345   1.363       .  A
N345        C346   1.356       .  A
C346       C1624   1.488       .  S
C346        N347   1.353       .  A
C348       C1767   1.463       .  S
C348        N349   1.357       .  A
C348        N353   1.358       .  A
N349        C350   1.351       .  A
C350       C1597   1.456       .  S
C350        N351   1.349       .  A
N351        C352   1.349       .  A
C352       C1604   1.449       .  S
C352        N353   1.355       .  A
C354       C2187   1.484       .  S
C354        N355   1.377       .  A
C354        N359   1.355       .  A
N355        C356   1.376       .  A
C356       C2474   1.507       .  S
C356        N357   1.359       .  A
N357        C358   1.349       .  A
C358       C1584   1.462       .  S
C358        N359   1.347       .  A
C360       C2487   1.489       .  S
C360        N361   1.358       .  A
C360        N365   1.368       .  A
N361        C362   1.352       .  A
C362       C1574   1.460       .  S
C362        N363   1.349       .  A
N363        C364   1.357       .  A
C364       C2177   1.470       .  S
C364        N365   1.366       .  A
C366       C2104   1.481       .  S
C366        N367   1.369       .  A
C366        N371   1.356       .  A
N367        C368   1.367       .  A
C368       C2237   1.471       .  S
C368        N369   1.354       .  A
N369        C370   1.347       .  A
C370       C1564   1.459       .  S
C370        N371   1.350       .  A
C372       C2097   1.506       .  S
C372        N373   1.377       .  A
C372        N377   1.362       .  A
N373        C374   1.375       .  A
C374       C2244   1.481       .  S
C374        N375   1.349       .  A
N375        C376   1.344       .  A
C376       C1554   1.470       .  S
C376        N377   1.350       .  A
N378        C383   1.346       .  A
N378        C382   1.346       .  A
N378        H410   1.049       .  S
N379        C386   1.351       .  A
N379        C387   1.350       .  A
N380        C385   1.345       .  A
N380        C384   1.343       .  A
N380        H411   1.048       .  S
N381        C388   1.351       .  A
N381        C389   1.353       .  A
C382        C390   1.386       .  A
C382        C398   1.403       .  A
C383        C399   1.405       .  A
C383        C391   1.385       .  A
C384        C392   1.384       .  A
C384        C401   1.401       .  A
C385        C400   1.410       .  A
C385        C393   1.388       .  A
C386        C398   1.409       .  A
C386        C394   1.385       .  A
C387        C401   1.408       .  A
C387        C395   1.386       .  A
C388        C396   1.387       .  A
C388        C399   1.413       .  A
C389        C397   1.387       .  A
C389        C400   1.415       .  A
C390        C391   1.380       .  A
C390        H402   1.080       .  S
C391        H403   1.082       .  S
C392        C393   1.379       .  A
C392        H404   1.082       .  S
C393        H405   1.082       .  S
C394        C395   1.370       .  A
C394        H406   1.082       .  S
C395        H407   1.082       .  S
C396        C397   1.363       .  A
C396        H408   1.081       .  S
C397        H409   1.081       .  S
C398       C1534   1.487       .  S
C399       C1544   1.483       .  S
C400       C1557   1.484       .  S
C401       C1577   1.479       .  S
N412        C417   1.351       .  A
N412        C416   1.357       .  A
N412        H444   1.041       .  S
N413        C420   1.351       .  A
N413        C421   1.348       .  A
N414        C419   1.357       .  A
N414        C418   1.350       .  A
N414        H445   1.039       .  S
N415        C422   1.344       .  A
N415        C423   1.345       .  A
C416        C424   1.385       .  A
C416        C432   1.414       .  A
C417        C433   1.418       .  A
C417        C425   1.390       .  A
C418        C426   1.392       .  A
C418        C435   1.418       .  A
C419        C434   1.409       .  A
C419        C427   1.382       .  A
C420        C432   1.408       .  A
C420        C428   1.382       .  A
C421        C435   1.409       .  A
C421        C429   1.389       .  A
C422        C430   1.390       .  A
C422        C433   1.406       .  A
C423        C431   1.381       .  A
C423        C434   1.396       .  A
C424        C425   1.367       .  A
C424        H436   1.082       .  S
C425        H437   1.081       .  S
C426        C427   1.366       .  A
C426        H438   1.081       .  S
C427        H439   1.082       .  S
C428        C429   1.376       .  A
C428        H440   1.082       .  S
C429        H441   1.083       .  S
C430        C431   1.375       .  A
C430        H442   1.082       .  S
C431        H443   1.082       .  S
C432       C1644   1.499       .  S
C433       C1517   1.478       .  S
C434       C1524   1.484       .  S
C435       C1607   1.474       .  S
C446       C2007   1.482       .  S
C446        N447   1.370       .  A
C446        N451   1.354       .  A
N447        C448   1.370       .  A
C448       C2117   1.489       .  S
C448        N449   1.361       .  A
N449        C450   1.354       .  A
C450       C1504   1.466       .  S
C450        N451   1.349       .  A
C452       C2127   1.485       .  S
C452        N453   1.368       .  A
C452        N457   1.358       .  A
N453        C454   1.365       .  A
C454       C1997   1.468       .  S
C454        N455   1.353       .  A
N455        C456   1.348       .  A
C456       C1547   1.466       .  S
C456        N457   1.354       .  A
C458       C2467   1.491       .  S
C458        N459   1.360       .  A
C458        N463   1.371       .  A
N459        C460   1.357       .  A
C460       C1494   1.471       .  S
C460        N461   1.351       .  A
N461        C462   1.353       .  A
C462       C1937   1.475       .  S
C462        N463   1.367       .  A
C464       C2457   1.477       .  S
C464        N465   1.368       .  A
C464        N469   1.357       .  A
N465        C466   1.369       .  A
C466       C1947   1.477       .  S
C466        N467   1.356       .  A
N467        C468   1.350       .  A
C468       C1537   1.462       .  S
C468        N469   1.351       .  A
C470       C2297   1.472       .  S
C470        N471   1.357       .  A
C470        N475   1.365       .  A
N471        C472   1.350       .  A
C472       C1484   1.461       .  S
C472        N473   1.351       .  A
N473        C474   1.357       .  A
C474       C2507   1.480       .  S
C474        N475   1.367       .  A
C476       C2497   1.490       .  S
C476        N477   1.361       .  A
C476        N481   1.368       .  A
N477        C478   1.352       .  A
C478       C1474   1.476       .  S
C478        N479   1.349       .  A
N479        C480   1.353       .  A
C480       C2307   1.470       .  S
C480        N481   1.366       .  A
C482       C1747   1.492       .  S
C482        N483   1.371       .  A
C482        N487   1.356       .  A
N483        C484   1.371       .  A
C484       C2377   1.479       .  S
C484        N485   1.358       .  A
N485        C486   1.350       .  A
C486       C1464   1.459       .  S
C486        N487   1.349       .  A
C488       C1737   1.489       .  S
C488        N489   1.369       .  A
C488        N493   1.364       .  A
N489        C490   1.367       .  A
C490       C2387   1.478       .  S
C490        N491   1.353       .  A
N491        C492   1.348       .  A
C492       C1527   1.466       .  S
C492        N493   1.356       .  A
N494        C499   1.351       .  A
N494        C498   1.350       .  A
N494        H526   1.036       .  S
N495        C502   1.347       .  A
N495        C503   1.346       .  A
N496        C501   1.352       .  A
N496        C500   1.355       .  A
N496        H527   1.041       .  S
N497        C504   1.348       .  A
N497        C505   1.347       .  A
C498        C506   1.388       .  A
C498        C514   1.412       .  A
C499        C515   1.410       .  A
C499        C507   1.386       .  A
C500        C508   1.387       .  A
C500        C517   1.415       .  A
C501        C516   1.418       .  A
C501        C509   1.389       .  A
C502        C514   1.402       .  A
C502        C510   1.385       .  A
C503        C517   1.406       .  A
C503        C511   1.386       .  A
C504        C512   1.384       .  A
C504        C515   1.405       .  A
C505        C513   1.386       .  A
C505        C516   1.409       .  A
C506        C507   1.370       .  A
C506        H518   1.082       .  S
C507        H519   1.082       .  S
C508        C509   1.367       .  A
C508        H520   1.081       .  S
C509        H521   1.081       .  S
C510        C511   1.376       .  A
C510        H522   1.082       .  S
C511        H523   1.082       .  S
C512        C513   1.376       .  A
C512        H524   1.082       .  S
C513        H525   1.082       .  S
C514       C1467   1.481       .  S
C515       C1454   1.483       .  S
C516       C1497   1.487       .  S
C517       C1477   1.490       .  S
N528        C533   1.352       .  A
N528        C532   1.359       .  A
N528        H560   1.042       .  S
N529        C536   1.348       .  A
N529        C537   1.346       .  A
N530        C535   1.355       .  A
N530        C534   1.348       .  A
N530        H561   1.039       .  S
N531        C538   1.345       .  A
N531        C539   1.349       .  A
C532        C540   1.386       .  A
C532        C548   1.418       .  A
C533        C549   1.419       .  A
C533        C541   1.390       .  A
C534        C542   1.390       .  A
C534        C551   1.413       .  A
C535        C550   1.408       .  A
C535        C543   1.384       .  A
C536        C548   1.409       .  A
C536        C544   1.384       .  A
C537        C551   1.403       .  A
C537        C545   1.387       .  A
C538        C546   1.388       .  A
C538        C549   1.406       .  A
C539        C547   1.381       .  A
C539        C550   1.401       .  A
C540        C541   1.367       .  A
C540        H552   1.081       .  S
C541        H553   1.081       .  S
C542        C543   1.367       .  A
C542        H554   1.081       .  S
C543        H555   1.082       .  S
C544        C545   1.376       .  A
C544        H556   1.082       .  S
C545        H557   1.082       .  S
C546        C547   1.375       .  A
C546        H558   1.082       .  S
C547        H559   1.082       .  S
C548       C1444   1.501       .  S
C549       C1567   1.479       .  S
C550       C1434   1.490       .  S
C551       C1667   1.474       .  S
C562       C2017   1.477       .  S
C562        N563   1.356       .  A
C562        N567   1.368       .  A
N563        C564   1.349       .  A
C564       C1424   1.461       .  S
C564        N565   1.347       .  A
N565        C566   1.352       .  A
C566       C1787   1.472       .  S
C566        N567   1.370       .  A
C568       C1777   1.480       .  S
C568        N569   1.360       .  A
C568        N573   1.370       .  A
N569        C570   1.351       .  A
C570       C1457   1.462       .  S
C570        N571   1.348       .  A
N571        C572   1.354       .  A
C572       C2027   1.482       .  S
C572        N573   1.371       .  A
C574       C2137   1.513       .  S
C574        N575   1.361       .  A
C574        N579   1.384       .  A
N575        C576   1.356       .  A
C576       C1447   1.486       .  S
C576        N577   1.353       .  A
N577        C578   1.356       .  A
C578       C1414   1.509       .  S
C578        N579   1.384       .  A
C580       C1397   1.450       .  S
C580        N581   1.348       .  A
C580        N585   1.345       .  A
N581        C582   1.357       .  A
C582       C2144   1.458       .  S
C582        N583   1.364       .  A
N583        C584   1.362       .  A
C584       C1407   1.477       .  S
C584        N585   1.349       .  A
C586       C2367   1.478       .  S
C586        N587   1.375       .  A
C586        N591   1.349       .  A
N587        C588   1.376       .  A
C588       C1877   1.499       .  S
C588        N589   1.361       .  A
N589        C590   1.350       .  A
C590       C1384   1.470       .  S
C590        N591   1.346       .  A
C592       C1887   1.469       .  S
C592        N593   1.354       .  A
C592        N597   1.369       .  A
N593        C594   1.349       .  A
C594       C1514   1.460       .  S
C594        N595   1.347       .  A
N595        C596   1.352       .  A
C596       C2357   1.470       .  S
C596        N597   1.367       .  A
N598        C603   1.354       .  A
N598        C602   1.352       .  A
N598        H630   1.040       .  S
N599        C606   1.347       .  A
N599        C607   1.349       .  A
N600        C605   1.350       .  A
N600        C604   1.352       .  A
N600        H631   1.039       .  S
N601        C608   1.347       .  A
N601        C609   1.346       .  A
C602        C610   1.388       .  A
C602        C618   1.416       .  A
C603        C619   1.417       .  A
C603        C611   1.388       .  A
C604        C612   1.388       .  A
C604        C621   1.413       .  A
C605        C620   1.410       .  A
C605        C613   1.386       .  A
C606        C618   1.409       .  A
C606        C614   1.388       .  A
C607        C621   1.405       .  A
C607        C615   1.384       .  A
C608        C616   1.385       .  A
C608        C619   1.407       .  A
C609        C617   1.385       .  A
C609        C620   1.402       .  A
C610        C611   1.366       .  A
C610        H622   1.081       .  S
C611        H623   1.081       .  S
C612        C613   1.370       .  A
C612        H624   1.082       .  S
C613        H625   1.082       .  S
C614        C615   1.375       .  A
C614        H626   1.082       .  S
C615        H627   1.082       .  S
C616        C617   1.376       .  A
C616        H628   1.082       .  S
C617        H629   1.082       .  S
C618       C1387   1.488       .  S
C619       C1374   1.492       .  S
C620       C1587   1.482       .  S
C621       C1487   1.482       .  S
N632        C637   1.352       .  A
N632        C636   1.354       .  A
N632        H664   1.041       .  S
N633        C640   1.348       .  A
N633        C641   1.348       .  A
N634        C639   1.354       .  A
N634        C638   1.352       .  A
N634        H665   1.042       .  S
N635        C642   1.345       .  A
N635        C643   1.345       .  A
C636        C644   1.385       .  A
C636        C652   1.413       .  A
C637        C653   1.419       .  A
C637        C645   1.390       .  A
C638        C646   1.392       .  A
C638        C655   1.421       .  A
C639        C654   1.408       .  A
C639        C647   1.382       .  A
C640        C652   1.407       .  A
C640        C648   1.383       .  A
C641        C655   1.413       .  A
C641        C649   1.389       .  A
C642        C650   1.389       .  A
C642        C653   1.406       .  A
C643        C651   1.383       .  A
C643        C654   1.397       .  A
C644        C645   1.369       .  A
C644        H656   1.081       .  S
C645        H657   1.081       .  S
C646        C647   1.365       .  A
C646        H658   1.078       .  S
C647        H659   1.082       .  S
C648        C649   1.381       .  A
C648        H660   1.082       .  S
C649        H661   1.082       .  S
C650        C651   1.376       .  A
C650        H662   1.082       .  S
C651        H663   1.082       .  S
C652       C1627   1.495       .  S
C653       C1427   1.485       .  S
C654       C1507   1.482       .  S
C655       C1404   1.495       .  S
C666       C2257   1.464       .  S
C666        N667   1.361       .  A
C666        N671   1.357       .  A
N667        C668   1.363       .  A
C668       C1907   1.479       .  S
C668        N669   1.357       .  A
N669        C670   1.354       .  A
C670       C1377   1.474       .  S
C670        N671   1.353       .  A
C672       C1897   1.499       .  S
C672        N673   1.371       .  A
C672        N677   1.365       .  A
N673        C674   1.371       .  A
C674       C2267   1.484       .  S
C674        N675   1.354       .  A
N675        C676   1.351       .  A
C676       C1437   1.472       .  S
C676        N677   1.358       .  A
C678       C2274   1.468       .  S
C678        N679   1.362       .  A
C678        N683   1.353       .  A
N679        C680   1.367   1_554  A
C680       C2447   1.490       .  S
C680        N681   1.362       .  A
N681        C682   1.358   1_556  A
C682       C1364   1.473       .  S
C682        N683   1.351       .  A
C684       C2437   1.496       .  S
C684        N685   1.362       .  A
C684        N689   1.371       .  A
N685        C686   1.351       .  A
C686       C1354   1.460       .  S
C686        N687   1.346   1_556  A
N687        C688   1.353       .  A
C688       C2284   1.478       .  S
C688        N689   1.372   1_554  A
C690       C1927   1.475       .  S
C690        N691   1.354       .  A
C690        N695   1.369   1_455  A
N691        C692   1.349   1_455  A
C692       C1344   1.462       .  S
C692        N693   1.351       .  A
N693        C694   1.360       .  A
C694       C2417   1.485       .  S
C694        N695   1.368       .  A
C696       C1917   1.478       .  S
C696        N697   1.358       .  A
C696        N701   1.365   1_455  A
N697        C698   1.347       .  A
C698       C1337   1.461       .  S
C698        N699   1.349   1_455  A
N699        C700   1.358       .  A
C700       C2427   1.480       .  S
C700        N701   1.368       .  A
C702       C2407   1.491       .  S
C702        N703   1.371   1_565  A
C702        N707   1.359       .  A
N703        C704   1.368       .  A
C704       C2157   1.472       .  S
C704        N705   1.353       .  A
N705        C706   1.348       .  A
C706       C1327   1.464       .  S
C706        N707   1.352   1_545  A
C708       C2164   1.480       .  S
C708        N709   1.374   1_545  A
C708        N713   1.350       .  A
N709        C710   1.374       .  A
C710       C2394   1.494       .  S
C710        N711   1.359       .  A
N711        C712   1.349       .  A
C712       C1314   1.459       .  S
C712        N713   1.344   1_565  A
C714       C2037   1.508       .  S
C714        N715   1.386   1_556  A
C714        N719   1.356       .  A
N715        C716   1.387       .  A
C716       C1297   1.521       .  S
C716        N717   1.361       .  A
N717        C718   1.354       .  A
C718       C1307   1.475   1_554  S
C718        N719   1.350   1_554  A
C720       C1277   1.441       .  S
C720        N721   1.347       .  A
C720        N725   1.343       .  A
N721        C722   1.349       .  A
C722       C1284   1.464       .  S
C722        N723   1.361   1_554  A
N723        C724   1.364       .  A
C724       C2047   1.470       .  S
C724        N725   1.353   1_556  A
C726       C1827   1.489       .  S
C726        N727   1.360       .  A
C726        N731   1.368   1_545  A
N727        C728   1.355   1_545  A
C728       C1264   1.466       .  S
C728        N729   1.351       .  A
N729        C730   1.355       .  A
C730       C2337   1.472       .  S
C730        N731   1.365       .  A
C732       C2347   1.483       .  S
C732        N733   1.371       .  A
C732        N737   1.353       .  A
N733        C734   1.370   1_565  A
C734       C1817   1.489       .  S
C734        N735   1.360       .  A
N735        C736   1.351   1_545  A
C736       C1257   1.459       .  S
C736        N737   1.346       .  A
N738        C743   1.352       .  A
N738        C742   1.355       .  A
N738        H770   1.042       .  S
N739        C746   1.346       .  A
N739        C747   1.347       .  A
N740        C745   1.351       .  A
N740        C744   1.350   1_565  A
N740        H771   1.043   1_565  S
N741        C748   1.345       .  A
N741        C749   1.344       .  A
C742        C750   1.384       .  A
C742        C758   1.411       .  A
C743        C759   1.420       .  A
C743        C751   1.392       .  A
C744        C752   1.391   1_545  A
C744        C761   1.416       .  A
C745        C760   1.406   1_554  A
C745        C753   1.385       .  A
C746        C758   1.401   1_554  A
C746        C754   1.384       .  A
C747        C761   1.409       .  A
C747        C755   1.387       .  A
C748        C756   1.389       .  A
C748        C759   1.406   1_565  A
C749        C757   1.383       .  A
C749        C760   1.397       .  A
C750        C751   1.372       .  A
C750        H762   1.082       .  S
C751        H763   1.081       .  S
C752        C753   1.365       .  A
C752        H764   1.079       .  S
C753        H765   1.082       .  S
C754        C755   1.377       .  A
C754        H766   1.082       .  S
C755        H767   1.082       .  S
C756        C757   1.376       .  A
C756        H768   1.082       .  S
C757        H769   1.082       .  S
C758       C1304   1.487       .  S
C759       C1224   1.485   1_545  S
C760       C1237   1.477       .  S
C761       C1247   1.487       .  S
N772        C777   1.355       .  A
N772        C776   1.352       .  A
N772        H804   1.040       .  S
N773        C780   1.347       .  A
N773        C781   1.348       .  A
N774        C779   1.351       .  A
N774        C778   1.354       .  A
N774        H805   1.037       .  S
N775        C782   1.350       .  A
N775        C783   1.348       .  A
C776        C784   1.384       .  A
C776        C792   1.413   1_556  A
C777        C793   1.421   1_565  A
C777        C785   1.391       .  A
C778        C786   1.389       .  A
C778        C795   1.418   1_545  A
C779        C794   1.412       .  A
C779        C787   1.385       .  A
C780        C792   1.404       .  A
C780        C788   1.386       .  A
C781        C795   1.407       .  A
C781        C789   1.384       .  A
C782        C790   1.386       .  A
C782        C793   1.411       .  A
C783        C791   1.385       .  A
C783        C794   1.408   1_556  A
C784        C785   1.364       .  A
C784        H796   1.083       .  S
C785        H797   1.078       .  S
C786        C787   1.362       .  A
C786        H798   1.079       .  S
C787        H799   1.082       .  S
C788        C789   1.374       .  A
C788        H800   1.082       .  S
C789        H801   1.082       .  S
C790        C791   1.373       .  A
C790        H802   1.082       .  S
C791        H803   1.082       .  S
C792       C1357   1.481       .  S
C793       C1324   1.492       .  S
C794       C1217   1.479       .  S
C795       C1267   1.488       .  S
C806       C1837   1.485       .  S
C806        N807   1.372       .  A
C806        N811   1.362       .  A
N807        C808   1.371       .  A
C808       C2207   1.478   1_554  S
C808        N809   1.350       .  A
N809        C810   1.345       .  A
C810       C1214   1.458       .  S
C810        N811   1.352       .  A
C812       C2197   1.478       .  S
C812        N813   1.369   1_556  A
C812        N817   1.356       .  A
N813        C814   1.371       .  A
C814       C1847   1.479       .  S
C814        N815   1.353       .  A
N815        C816   1.348       .  A
C816       C1207   1.461       .  S
C816        N817   1.349   1_554  A
C818       C1687   1.466       .  S
C818        N819   1.364       .  A
C818        N823   1.358   1_565  A
N819        C820   1.362   1_565  A
C820       C1244   1.468       .  S
C820        N821   1.347       .  A
N821        C822   1.345       .  A
C822       C1194   1.449       .  S
C822        N823   1.347       .  A
C824       C1174   1.515       .  S
C824        N825   1.359       .  A
C824        N829   1.386       .  A
N825        C826   1.355   1_545  A
C826       C1187   1.483       .  S
C826        N827   1.355       .  A
N827        C828   1.359       .  A
C828       C1677   1.514       .  S
C828        N829   1.386   1_565  A
C830       C2327   1.476       .  S
C830        N831   1.353       .  A
C830        N835   1.373   1_655  A
N831        C832   1.347   1_655  A
C832       C1164   1.462       .  S
C832        N833   1.351       .  A
N833        C834   1.360       .  A
C834       C1697   1.489       .  S
C834        N835   1.371       .  A
C836       C2317   1.474       .  S
C836        N837   1.360       .  A
C836        N841   1.365       .  A
N837        C838   1.353       .  A
C838       C1157   1.464       .  S
C838        N839   1.348   1_655  A
N839        C840   1.351       .  A
C840       C1707   1.469       .  S
C840        N841   1.366   1_455  A
N842        C847   1.351       .  A
N842        C846   1.354       .  A
N842        H874   1.042       .  S
N843        C850   1.349   1_455  A
N843        C851   1.348       .  A
N844        C849   1.355   1_554  A
N844        C848   1.352       .  A
N844        H875   1.042   1_455  S
N845        C852   1.345   1_556  A
N845        C853   1.346       .  A
C846        C854   1.385       .  A
C846        C862   1.410       .  A
C847        C863   1.418       .  A
C847        C855   1.391       .  A
C848        C856   1.393   1_554  A
C848        C865   1.423       .  A
C849        C864   1.409   1_455  A
C849        C857   1.381       .  A
C850        C862   1.405       .  A
C850        C858   1.383   1_655  A
C851        C865   1.412       .  A
C851        C859   1.389       .  A
C852        C860   1.388   1_554  A
C852        C863   1.407       .  A
C853        C861   1.382       .  A
C853        C864   1.398       .  A
C854        C855   1.371       .  A
C854        H866   1.082       .  S
C855        H867   1.081       .  S
C856        C857   1.365       .  A
C856        H868   1.078       .  S
C857        H869   1.082       .  S
C858        C859   1.378       .  A
C858        H870   1.082       .  S
C859        H871   1.082       .  S
C860        C861   1.376       .  A
C860        H872   1.082       .  S
C861        H873   1.082       .  S
C862       C1144   1.490       .  S
C863       C1204   1.484       .  S
C864       C1137   1.486       .  S
C865       C1287   1.489       .  S
N876        C881   1.351       .  A
N876        C880   1.355       .  A
N876        H908   1.039       .  S
N877        C884   1.349       .  A
N877        C885   1.346       .  A
N878        C883   1.355       .  A
N878        C882   1.351       .  A
N878        H909   1.038       .  S
N879        C886   1.346       .  A
N879        C887   1.349       .  A
C880        C888   1.391       .  A
C880        C896   1.420   1_556  A
C881        C897   1.411       .  A
C881        C889   1.385       .  A
C882        C890   1.385       .  A
C882        C899   1.412       .  A
C883        C898   1.421   1_554  A
C883        C891   1.391       .  A
C884        C896   1.410       .  A
C884        C892   1.386       .  A
C885        C899   1.402   1_655  A
C885        C893   1.385       .  A
C886        C894   1.385       .  A
C886        C897   1.403   1_455  A
C887        C895   1.386       .  A
C887        C898   1.409       .  A
C888        C889   1.367       .  A
C888        H900   1.080       .  S
C889        H901   1.082       .  S
C890        C891   1.366       .  A
C890        H902   1.082       .  S
C891        H903   1.079       .  S
C892        C893   1.376       .  A
C892        H904   1.082       .  S
C893        H905   1.082       .  S
C894        C895   1.375       .  A
C894        H906   1.082       .  S
C895        H907   1.082       .  S
C896       C1367   1.494       .  S
C897       C1347   1.479       .  S
C898       C1124   1.494       .  S
C899       C1167   1.480       .  S
C910       C1717   1.494       .  S
C910        N911   1.359       .  A
C910        N915   1.372       .  A
N911        C912   1.348       .  A
C912       C1234   1.460       .  S
C912        N913   1.345   1_554  A
N913        C914   1.353       .  A
C914       C1967   1.485       .  S
C914        N915   1.372   1_556  A
C916       C1957   1.471       .  S
C916        N917   1.363       .  A
C916        N921   1.356       .  A
N917        C918   1.367   1_556  A
C918       C1724   1.481       .  S
C918        N919   1.359       .  A
N919        C920   1.354   1_554  A
C920       C1127   1.470       .  S
C920        N921   1.351       .  A
C922       C1114   1.520       .  S
C922        N923   1.357       .  A
C922        N927   1.387   1_455  A
N923        C924   1.350   1_455  A
C924       C1147   1.476       .  S
C924        N925   1.353       .  A
N925        C926   1.359       .  A
C926       C1797   1.513       .  S
C926        N927   1.389       .  A
C928       C1097   1.448       .  S
C928        N929   1.346       .  A
C928        N933   1.347   1_455  A
N929        C930   1.348       .  A
C930       C1107   1.476       .  S
C930        N931   1.362   1_455  A
N931        C932   1.365       .  A
C932       C1807   1.477       .  S
C932        N933   1.357       .  A
C934       C2227   1.487       .  S
C934        N935   1.354       .  A
C934        N939   1.372       .  A
N935        C936   1.349       .  A
C936       C1134   1.469       .  S
C936        N937   1.355   1_655  A
N937        C938   1.364       .  A
C938       C2074   1.499       .  S
C938        N939   1.372   1_455  A
C940       C2214   1.467       .  S
C940        N941   1.365       .  A
C940        N945   1.354       .  A
N941        C942   1.367       .  A
C942       C2084   1.481   1_655  S
C942        N943   1.356       .  A
N943        C944   1.351       .  A
C944       C1084   1.460       .  S
C944        N945   1.349       .  A
N946        C951   1.355       .  A
N946        C950   1.354       .  A
N946        H978   1.042       .  S
N947        C954   1.346       .  A
N947        C955   1.345       .  A
N948        C953   1.353       .  A
N948        C952   1.352       .  A
N948        H979   1.042   1_655  S
N949        C956   1.348       .  A
N949        C957   1.350       .  A
C950        C958   1.389       .  A
C950        C966   1.420       .  A
C951        C967   1.414       .  A
C951        C959   1.386       .  A
C952        C960   1.384       .  A
C952        C969   1.409   1_545  A
C953        C968   1.419   1_655  A
C953        C961   1.391       .  A
C954        C966   1.407   1_655  A
C954        C962   1.388       .  A
C955        C969   1.397       .  A
C955        C963   1.383       .  A
C956        C964   1.383       .  A
C956        C967   1.406   1_545  A
C957        C965   1.387       .  A
C957        C968   1.412       .  A
C958        C959   1.371       .  A
C958        H970   1.081       .  S
C959        H971   1.081       .  S
C960        C961   1.365       .  A
C960        H972   1.082       .  S
C961        H973   1.079       .  S
C962        C963   1.374       .  A
C962        H974   1.082       .  S
C963        H975   1.082       .  S
C964        C965   1.379       .  A
C964        H976   1.082       .  S
C965        H977   1.082       .  S
C966       C1154   1.489   1_455  S
C967       C1184   1.494       .  S
C968       C1104   1.500       .  S
C969       C1254   1.478       .  S
N980        C985   1.348       .  A
N980        C984   1.348       .  A
N980       H1012   1.045       .  S
N981        C988   1.350       .  A
N981        C989   1.344       .  A
N982        C987   1.355   1_565  A
N982        C986   1.356       .  A
N982       H1013   1.040   1_465  S
N983        C990   1.351   1_455  A
N983        C991   1.346       .  A
C984        C992   1.378       .  A
C984       C1000   1.395       .  A
C985       C1001   1.395       .  A
C985        C993   1.382       .  A
C986        C994   1.384       .  A
C986       C1003   1.412   1_455  A
C987       C1002   1.413       .  A
C987        C995   1.385   1_545  A
C988       C1000   1.403   1_565  A
C988        C996   1.383       .  A
C989       C1003   1.409       .  A
C989        C997   1.389       .  A
C990        C998   1.384   1_655  A
C990       C1001   1.405       .  A
C991        C999   1.388       .  A
C991       C1002   1.410       .  A
C992        C993   1.371       .  A
C992       H1004   1.077       .  S
C993       H1005   1.077       .  S
C994        C995   1.374       .  A
C994       H1006   1.082       .  S
C995       H1007   1.082       .  S
C996        C997   1.371       .  A
C996       H1008   1.082       .  S
C997       H1009   1.081       .  S
C998        C999   1.370       .  A
C998       H1010   1.083       .  S
C999       H1011   1.081       .  S
C1000      C1317   1.479       .  S
C1001      C1087   1.478       .  S
C1002      C1074   1.485       .  S
C1003      C1334   1.483       .  S
C1014      C2064   1.477       .  S
C1014      N1015   1.352       .  A
C1014      N1019   1.372       .  A
N1015      C1016   1.349   1_545  A
C1016      C1227   1.458       .  S
C1016      N1017   1.349       .  A
N1017      C1018   1.355       .  A
C1018      C1977   1.477       .  S
C1018      N1019   1.370   1_565  A
C1020      C1987   1.483       .  S
C1020      N1021   1.377   1_565  A
C1020      N1025   1.353       .  A
N1021      C1022   1.376       .  A
C1022      C2057   1.502       .  S
C1022      N1023   1.361       .  A
N1023      C1024   1.350       .  A
C1024      C1077   1.463       .  S
C1024      N1025   1.346   1_545  A
O1026      C1053   1.268       .  A
O1026     Mn1052   2.074       .  S
C1027      O1060   1.269       .  A
C1027      O1057   1.269       .  A
C1027      C1197   1.472       .  S
O1028     Mn1035   2.157       .  S
O1028     Mn1046   2.114       .  S
O1028     Mn1050   2.167       .  S
O1028     Mn1052   2.111       .  S
O1029      C1039   1.268       .  A
O1029     Mn1063   2.067       .  S
O1030      C1053   1.271       .  A
O1030     Mn1046   2.078       .  S
O1031      C1058   1.268       .  A
O1031     Mn1050   2.171       .  S
O1032     Mn1063   1.982       .  S
O1032     Mn1052   1.950       .  S
O1032      C1048   1.229       .  S
C1033      O1036   1.268       .  A
C1033      C1637   1.532       .  S
C1033      O1059   1.224       .  S
O1034     Mn1054   2.113       .  S
O1034     Mn1035   2.156       .  S
O1034     Mn1068   2.106       .  S
O1034     Mn1050   2.156       .  S
Mn1035     O1064   2.149       .  S
Mn1035     O1040   2.162       .  S
Mn1035     O1067   2.146       .  S
Mn1035     O1041   2.159       .  S
O1036     Mn1050   2.177       .  S
O1037      C1039   1.270       .  A
O1037     Mn1044   2.085       .  S
C1038      O1064   1.264       .  A
C1038      C1294   1.528       .  S
C1038      O1051   1.230       .  S
C1039      C1657   1.471       .  S
O1040      C1065   1.264       .  A
O1041     Mn1044   2.112       .  S
O1041     Mn1063   2.118       .  S
O1041     Mn1050   2.163       .  S
O1042     Mn1046   1.944       .  S
O1042     Mn1068   1.974       .  S
O1042      C1065   1.226       .  S
C1043      O1069   1.271       .  A
C1043      O1045   1.268       .  A
C1043      C1594   1.474       .  S
Mn1044     O1057   2.064       .  S
Mn1044     O1059   1.947       .  S
Mn1044     O1051   1.990       .  S
O1045     Mn1068   2.074       .  S
Mn1046     O1062   2.083       .  S
Mn1046     O1056   1.989       .  S
O1047      C1049   1.268       .  A
O1047     Mn1052   2.065       .  S
C1048      O1066   1.267       .  A
C1048      C1417   1.525       .  S
C1049      O1062   1.270       .  A
C1049      C1094   1.473       .  S
Mn1050     O1066   2.153       .  S
O1051     Mn1054   1.959       .  S
Mn1052     O1070   1.988       .  S
C1053      C1394   1.476       .  S
Mn1054     O1061   2.068       .  S
Mn1054     O1069   2.077       .  S
Mn1054     O1059   1.975       .  S
C1055      O1061   1.267       .  A
C1055      O1071   1.269       .  A
C1055      C1274   1.464       .  S
O1056     Mn1068   1.956       .  S
O1056      C1058   1.227       .  S
C1058      C1617   1.533       .  S
O1060     Mn1063   2.082       .  S
Mn1063     O1070   1.958       .  S
C1065      C1117   1.528       .  S
O1067      C1072   1.263       .  A
Mn1068     O1071   2.063       .  S
O1070      C1072   1.231       .  S
C1072      C1177   1.527       .  S
C1073      C1074   1.408       .  A
C1073      C1078   1.390       .  A
C1073      F1080   1.356       .  S
C1074      C1075   1.404       .  A
C1075      C1076   1.403       .  A
C1075      F1082   1.357       .  S
C1076      C1077   1.406       .  A
C1076      F1081   1.357       .  S
C1077      C1078   1.398       .  A
C1078      F1079   1.359       .  S
C1083      C1084   1.406       .  A
C1083      C1088   1.398       .  A
C1083      F1090   1.358       .  S
C1084      C1085   1.399       .  A
C1085      C1086   1.392       .  A
C1085      F1092   1.358       .  S
C1086      C1087   1.409       .  A
C1086      F1091   1.358       .  S
C1087      C1088   1.401       .  A
C1088      F1089   1.358       .  S
C1093      C1094   1.413       .  A
C1093      C1098   1.388       .  A
C1093      F1100   1.357       .  S
C1094      C1095   1.409       .  A
C1095      C1096   1.390       .  A
C1095      F1102   1.359       .  S
C1096      C1097   1.401       .  A
C1096      F1101   1.359       .  S
C1097      C1098   1.395       .  A
C1098      F1099   1.358       .  S
C1103      C1104   1.410       .  A
C1103      C1108   1.384       .  A
C1103      F1110   1.354       .  S
C1104      C1105   1.413       .  A
C1105      C1106   1.402       .  A
C1105      F1112   1.352   1_455  S
C1106      C1107   1.403       .  A
C1106      F1111   1.358   1_455  S
C1107      C1108   1.407       .  A
C1108      F1109   1.358       .  S
C1113      C1114   1.415       .  A
C1113      C1118   1.430       .  A
C1113      F1120   1.357       .  S
C1114      C1115   1.412       .  A
C1115      C1116   1.404       .  A
C1115      F1122   1.358       .  S
C1116      C1117   1.413       .  A
C1116      F1121   1.358       .  S
C1117      C1118   1.421       .  A
C1118      F1119   1.357       .  S
C1123      C1124   1.411       .  A
C1123      C1128   1.390       .  A
C1123      F1130   1.355       .  S
C1124      C1125   1.407       .  A
C1125      C1126   1.402       .  A
C1125      F1132   1.357   1_556  S
C1126      C1127   1.407       .  A
C1126      F1131   1.358   1_556  S
C1127      C1128   1.400       .  A
C1128      F1129   1.358       .  S
C1133      C1134   1.399       .  A
C1133      C1138   1.391       .  A
C1133      F1140   1.358       .  S
C1134      C1135   1.407       .  A
C1135      C1136   1.406       .  A
C1135      F1142   1.357   1_655  S
C1136      C1137   1.405       .  A
C1136      F1141   1.356   1_655  S
C1137      C1138   1.407       .  A
C1138      F1139   1.358       .  S
C1143      C1144   1.407       .  A
C1143      C1148   1.395   1_655  A
C1143      F1150   1.356   1_655  S
C1144      C1145   1.405       .  A
C1145      C1146   1.406       .  A
C1145      F1152   1.357       .  S
C1146      C1147   1.408       .  A
C1146      F1151   1.358       .  S
C1147      C1148   1.403   1_655  A
C1148      F1149   1.358       .  S
C1153      C1154   1.404   1_455  A
C1153      C1158   1.398       .  A
C1153      F1160   1.358       .  S
C1154      C1155   1.413       .  A
C1155      C1156   1.392       .  A
C1155      F1162   1.356       .  S
C1156      C1157   1.398       .  A
C1156      F1161   1.358       .  S
C1157      C1158   1.407   1_655  A
C1158      F1159   1.358       .  S
C1163      C1164   1.407       .  A
C1163      C1168   1.401       .  A
C1163      F1170   1.357       .  S
C1164      C1165   1.399   1_455  A
C1165      C1166   1.391       .  A
C1165      F1172   1.358       .  S
C1166      C1167   1.408   1_655  A
C1166      F1171   1.358       .  S
C1167      C1168   1.401       .  A
C1168      F1169   1.357       .  S
C1173      C1174   1.413       .  A
C1173      C1178   1.425       .  A
C1173      F1180   1.357       .  S
C1174      C1175   1.410       .  A
C1175      C1176   1.410       .  A
C1175      F1182   1.358       .  S
C1176      C1177   1.415       .  A
C1176      F1181   1.358       .  S
C1177      C1178   1.419       .  A
C1178      F1179   1.357       .  S
C1183      C1184   1.405       .  A
C1183      C1188   1.405       .  A
C1183      F1190   1.357       .  S
C1184      C1185   1.409   1_565  A
C1185      C1186   1.398       .  A
C1185      F1192   1.357       .  S
C1186      C1187   1.405   1_545  A
C1186      F1191   1.358       .  S
C1187      C1188   1.410       .  A
C1188      F1189   1.358       .  S
C1193      C1194   1.397       .  A
C1193      C1198   1.391       .  A
C1193      F1200   1.358       .  S
C1194      C1195   1.400       .  A
C1195      C1196   1.388       .  A
C1195      F1202   1.359       .  S
C1196      C1197   1.408       .  A
C1196      F1201   1.358       .  S
C1197      C1198   1.413       .  A
C1198      F1199   1.357       .  S
C1203      C1204   1.404       .  A
C1203      C1208   1.397       .  A
C1203      F1210   1.358       .  S
C1204      C1205   1.411   1_554  A
C1205      C1206   1.389       .  A
C1205      F1212   1.356       .  S
C1206      C1207   1.399   1_556  A
C1206      F1211   1.359       .  S
C1207      C1208   1.406       .  A
C1208      F1209   1.358       .  S
C1213      C1214   1.407       .  A
C1213      C1218   1.404       .  A
C1213      F1220   1.357       .  S
C1214      C1215   1.397       .  A
C1215      C1216   1.385       .  A
C1215      F1222   1.359       .  S
C1216      C1217   1.405       .  A
C1216      F1221   1.358       .  S
C1217      C1218   1.404       .  A
C1218      F1219   1.357       .  S
C1223      C1224   1.412       .  A
C1223      C1228   1.388       .  A
C1223      F1230   1.355       .  S
C1224      C1225   1.404   1_565  A
C1225      C1226   1.397       .  A
C1225      F1232   1.358       .  S
C1226      C1227   1.405   1_545  A
C1226      F1231   1.358       .  S
C1227      C1228   1.397       .  A
C1228      F1229   1.359       .  S
C1233      C1234   1.398   1_556  A
C1233      C1238   1.389       .  A
C1233      F1240   1.359       .  S
C1234      C1235   1.406       .  A
C1235      C1236   1.401       .  A
C1235      F1242   1.357       .  S
C1236      C1237   1.402   1_554  A
C1236      F1241   1.357       .  S
C1237      C1238   1.408       .  A
C1238      F1239   1.358       .  S
C1243      C1244   1.407       .  A
C1243      C1248   1.384       .  A
C1243      F1250   1.359       .  S
C1244      C1245   1.402       .  A
C1245      C1246   1.398       .  A
C1245      F1252   1.357   1_545  S
C1246      C1247   1.410       .  A
C1246      F1251   1.353       .  S
C1247      C1248   1.407       .  A
C1248      F1249   1.356       .  S
C1253      C1254   1.403       .  A
C1253      C1258   1.402       .  A
C1253      F1260   1.357   1_565  S
C1254      C1255   1.407       .  A
C1255      C1256   1.389       .  A
C1255      F1262   1.359       .  S
C1256      C1257   1.398       .  A
C1256      F1261   1.358       .  S
C1257      C1258   1.406       .  A
C1258      F1259   1.357   1_565  S
C1263      C1264   1.399       .  A
C1263      C1268   1.391       .  A
C1263      F1270   1.358       .  S
C1264      C1265   1.406       .  A
C1265      C1266   1.403       .  A
C1265      F1272   1.357       .  S
C1266      C1267   1.406       .  A
C1266      F1271   1.357       .  S
C1267      C1268   1.408       .  A
C1268      F1269   1.356       .  S
C1273      C1274   1.407       .  A
C1273      C1278   1.386       .  A
C1273      F1280   1.359       .  S
C1274      C1275   1.412       .  A
C1275      C1276   1.387       .  A
C1275      F1282   1.358       .  S
C1276      C1277   1.395       .  A
C1276      F1281   1.358       .  S
C1277      C1278   1.398       .  A
C1278      F1279   1.358       .  S
C1283      C1284   1.404       .  A
C1283      C1288   1.404       .  A
C1283      F1290   1.357       .  S
C1284      C1285   1.401       .  A
C1285      C1286   1.382       .  A
C1285      F1292   1.359       .  S
C1286      C1287   1.407       .  A
C1286      F1291   1.353       .  S
C1287      C1288   1.408       .  A
C1288      F1289   1.355       .  S
C1293      C1294   1.420       .  A
C1293      C1298   1.426       .  A
C1293      F1300   1.357       .  S
C1294      C1295   1.413       .  A
C1295      C1296   1.409       .  A
C1295      F1302   1.358       .  S
C1296      C1297   1.414       .  A
C1296      F1301   1.358       .  S
C1297      C1298   1.412       .  A
C1298      F1299   1.357       .  S
C1303      C1304   1.403       .  A
C1303      C1308   1.404       .  A
C1303      F1310   1.357       .  S
C1304      C1305   1.408   1_556  A
C1305      C1306   1.396       .  A
C1305      F1312   1.358       .  S
C1306      C1307   1.402   1_554  A
C1306      F1311   1.358       .  S
C1307      C1308   1.410       .  A
C1308      F1309   1.358       .  S
C1313      C1314   1.398       .  A
C1313      C1318   1.393       .  A
C1313      F1320   1.358       .  S
C1314      C1315   1.406   1_565  A
C1315      C1316   1.393       .  A
C1315      F1322   1.358       .  S
C1316      C1317   1.400       .  A
C1316      F1321   1.358       .  S
C1317      C1318   1.414   1_545  A
C1318      F1319   1.358       .  S
C1323      C1324   1.410       .  A
C1323      C1328   1.388       .  A
C1323      F1330   1.355       .  S
C1324      C1325   1.407       .  A
C1325      C1326   1.403       .  A
C1325      F1332   1.358   1_545  S
C1326      C1327   1.406       .  A
C1326      F1331   1.358   1_545  S
C1327      C1328   1.398       .  A
C1328      F1329   1.359       .  S
C1333      C1334   1.404       .  A
C1333      C1338   1.403       .  A
C1333      F1340   1.357       .  S
C1334      C1335   1.408   1_655  A
C1335      C1336   1.389       .  A
C1335      F1342   1.356       .  S
C1336      C1337   1.397       .  A
C1336      F1341   1.359       .  S
C1337      C1338   1.406   1_455  A
C1338      F1339   1.357       .  S
C1343      C1344   1.397       .  A
C1343      C1348   1.388       .  A
C1343      F1350   1.358   1_655  S
C1344      C1345   1.408       .  A
C1345      C1346   1.403       .  A
C1345      F1352   1.358       .  S
C1346      C1347   1.402       .  A
C1346      F1351   1.357       .  S
C1347      C1348   1.407       .  A
C1348      F1349   1.358   1_655  S
C1353      C1354   1.396   1_554  A
C1353      C1358   1.387       .  A
C1353      F1360   1.358       .  S
C1354      C1355   1.408       .  A
C1355      C1356   1.404       .  A
C1355      F1362   1.357       .  S
C1356      C1357   1.402   1_556  A
C1356      F1361   1.357       .  S
C1357      C1358   1.408       .  A
C1358      F1359   1.358       .  S
C1363      C1364   1.402       .  A
C1363      C1368   1.391       .  A
C1363      F1370   1.359       .  S
C1364      C1365   1.406       .  A
C1365      C1366   1.403       .  A
C1365      F1372   1.357       .  S
C1366      C1367   1.408       .  A
C1366      F1371   1.357       .  S
C1367      C1368   1.410       .  A
C1368      F1369   1.356       .  S
C1373      C1374   1.407       .  A
C1373      C1378   1.398       .  A
C1373      F1380   1.357       .  S
C1374      C1375   1.410       .  A
C1375      C1376   1.395       .  A
C1375      F1382   1.357       .  S
C1376      C1377   1.404       .  A
C1376      F1381   1.358       .  S
C1377      C1378   1.407       .  A
C1378      F1379   1.358       .  S
C1383      C1384   1.408       .  A
C1383      C1388   1.400       .  A
C1383      F1390   1.357       .  S
C1384      C1385   1.403       .  A
C1385      C1386   1.386       .  A
C1385      F1392   1.359       .  S
C1386      C1387   1.407       .  A
C1386      F1391   1.355       .  S
C1387      C1388   1.407       .  A
C1388      F1389   1.358       .  S
C1393      C1394   1.416       .  A
C1393      C1398   1.388       .  A
C1393      F1400   1.357       .  S
C1394      C1395   1.408       .  A
C1395      C1396   1.393       .  A
C1395      F1402   1.358       .  S
C1396      C1397   1.402       .  A
C1396      F1401   1.358       .  S
C1397      C1398   1.394       .  A
C1398      F1399   1.359       .  S
C1403      C1404   1.411       .  A
C1403      C1408   1.404       .  A
C1403      F1410   1.356       .  S
C1404      C1405   1.409       .  A
C1405      C1406   1.383       .  A
C1405      F1412   1.354       .  S
C1406      C1407   1.408       .  A
C1406      F1411   1.359       .  S
C1407      C1408   1.406       .  A
C1408      F1409   1.357       .  S
C1413      C1414   1.408       .  A
C1413      C1418   1.408       .  A
C1413      F1420   1.358       .  S
C1414      C1415   1.412       .  A
C1415      C1416   1.423       .  A
C1415      F1422   1.357       .  S
C1416      C1417   1.417       .  A
C1416      F1421   1.357       .  S
C1417      C1418   1.416       .  A
C1418      F1419   1.358       .  S
C1423      C1424   1.407       .  A
C1423      C1428   1.397       .  A
C1423      F1430   1.358       .  S
C1424      C1425   1.398       .  A
C1425      C1426   1.387       .  A
C1425      F1432   1.358       .  S
C1426      C1427   1.411       .  A
C1426      F1431   1.355       .  S
C1427      C1428   1.404       .  A
C1428      F1429   1.358       .  S
C1433      C1434   1.405       .  A
C1433      C1438   1.408       .  A
C1433      F1440   1.357       .  S
C1434      C1435   1.409       .  A
C1435      C1436   1.394       .  A
C1435      F1442   1.358       .  S
C1436      C1437   1.400       .  A
C1436      F1441   1.358       .  S
C1437      C1438   1.408       .  A
C1438      F1439   1.357       .  S
C1443      C1444   1.410       .  A
C1443      C1448   1.397       .  A
C1443      F1450   1.355       .  S
C1444      C1445   1.407       .  A
C1445      C1446   1.404       .  A
C1445      F1452   1.357       .  S
C1446      C1447   1.410       .  A
C1446      F1451   1.357       .  S
C1447      C1448   1.406       .  A
C1448      F1449   1.358       .  S
C1453      C1454   1.408       .  A
C1453      C1458   1.389       .  A
C1453      F1460   1.358       .  S
C1454      C1455   1.404       .  A
C1455      C1456   1.405       .  A
C1455      F1462   1.357       .  S
C1456      C1457   1.407       .  A
C1456      F1461   1.358       .  S
C1457      C1458   1.397       .  A
C1458      F1459   1.359       .  S
C1463      C1464   1.396       .  A
C1463      C1468   1.388       .  A
C1463      F1470   1.358       .  S
C1464      C1465   1.407       .  A
C1465      C1466   1.403       .  A
C1465      F1472   1.357       .  S
C1466      C1467   1.402       .  A
C1466      F1471   1.357       .  S
C1467      C1468   1.410       .  A
C1468      F1469   1.359       .  S
C1473      C1474   1.409       .  A
C1473      C1478   1.402       .  A
C1473      F1480   1.357       .  S
C1474      C1475   1.405       .  A
C1475      C1476   1.390       .  A
C1475      F1482   1.359       .  S
C1476      C1477   1.408       .  A
C1476      F1481   1.356       .  S
C1477      C1478   1.405       .  A
C1478      F1479   1.358       .  S
C1483      C1484   1.396       .  A
C1483      C1488   1.388       .  A
C1483      F1490   1.359       .  S
C1484      C1485   1.407       .  A
C1485      C1486   1.405       .  A
C1485      F1492   1.358       .  S
C1486      C1487   1.405       .  A
C1486      F1491   1.357       .  S
C1487      C1488   1.407       .  A
C1488      F1489   1.358       .  S
C1493      C1494   1.406       .  A
C1493      C1498   1.399       .  A
C1493      F1500   1.358       .  S
C1494      C1495   1.404       .  A
C1495      C1496   1.393       .  A
C1495      F1502   1.358       .  S
C1496      C1497   1.409       .  A
C1496      F1501   1.358       .  S
C1497      C1498   1.406       .  A
C1498      F1499   1.358       .  S
C1503      C1504   1.407       .  A
C1503      C1508   1.404       .  A
C1503      F1510   1.357       .  S
C1504      C1505   1.399       .  A
C1505      C1506   1.391       .  A
C1505      F1512   1.358       .  S
C1506      C1507   1.407       .  A
C1506      F1511   1.358       .  S
C1507      C1508   1.403       .  A
C1508      F1509   1.357       .  S
C1513      C1514   1.407       .  A
C1513      C1518   1.396       .  A
C1513      F1520   1.358       .  S
C1514      C1515   1.400       .  A
C1515      C1516   1.386       .  A
C1515      F1522   1.358       .  S
C1516      C1517   1.408       .  A
C1516      F1521   1.358       .  S
C1517      C1518   1.404       .  A
C1518      F1519   1.358       .  S
C1523      C1524   1.407       .  A
C1523      C1528   1.391       .  A
C1523      F1530   1.359       .  S
C1524      C1525   1.404       .  A
C1525      C1526   1.407       .  A
C1525      F1532   1.357       .  S
C1526      C1527   1.408       .  A
C1526      F1531   1.357       .  S
C1527      C1528   1.399       .  A
C1528      F1529   1.358       .  S
C1533      C1534   1.405       .  A
C1533      C1538   1.401       .  A
C1533      F1540   1.357       .  S
C1534      C1535   1.413       .  A
C1535      C1536   1.391       .  A
C1535      F1542   1.358       .  S
C1536      C1537   1.396       .  A
C1536      F1541   1.358       .  S
C1537      C1538   1.406       .  A
C1538      F1539   1.358       .  S
C1543      C1544   1.408       .  A
C1543      C1548   1.394       .  A
C1543      F1550   1.358       .  S
C1544      C1545   1.405       .  A
C1545      C1546   1.395       .  A
C1545      F1552   1.355       .  S
C1546      C1547   1.404       .  A
C1546      F1551   1.358       .  S
C1547      C1548   1.403       .  A
C1548      F1549   1.358       .  S
C1553      C1554   1.408       .  A
C1553      C1558   1.403       .  A
C1553      F1560   1.358       .  S
C1554      C1555   1.404       .  A
C1555      C1556   1.385       .  A
C1555      F1562   1.358       .  S
C1556      C1557   1.406       .  A
C1556      F1561   1.358       .  S
C1557      C1558   1.406       .  A
C1558      F1559   1.358       .  S
C1563      C1564   1.400       .  A
C1563      C1568   1.389       .  A
C1563      F1570   1.359       .  S
C1564      C1565   1.405       .  A
C1565      C1566   1.396       .  A
C1565      F1572   1.358       .  S
C1566      C1567   1.403       .  A
C1566      F1571   1.357       .  S
C1567      C1568   1.408       .  A
C1568      F1569   1.357       .  S
C1573      C1574   1.397       .  A
C1573      C1578   1.390       .  A
C1573      F1580   1.358       .  S
C1574      C1575   1.406       .  A
C1575      C1576   1.402       .  A
C1575      F1582   1.357       .  S
C1576      C1577   1.401       .  A
C1576      F1581   1.357       .  S
C1577      C1578   1.411       .  A
C1578      F1579   1.358       .  S
C1583      C1584   1.407       .  A
C1583      C1588   1.402       .  A
C1583      F1590   1.357       .  S
C1584      C1585   1.397       .  A
C1585      C1586   1.390       .  A
C1585      F1592   1.358       .  S
C1586      C1587   1.410       .  A
C1586      F1591   1.358       .  S
C1587      C1588   1.402       .  A
C1588      F1589   1.357       .  S
C1593      C1594   1.406       .  A
C1593      C1598   1.390       .  A
C1593      F1600   1.358       .  S
C1594      C1595   1.416       .  A
C1595      C1596   1.391       .  A
C1595      F1602   1.357       .  S
C1596      C1597   1.397       .  A
C1596      F1601   1.358       .  S
C1597      C1598   1.403       .  A
C1598      F1599   1.358       .  S
C1603      C1604   1.404       .  A
C1603      C1608   1.402       .  A
C1603      F1610   1.357       .  S
C1604      C1605   1.396       .  A
C1605      C1606   1.378       .  A
C1605      F1612   1.359       .  S
C1606      C1607   1.405       .  A
C1606      F1611   1.358       .  S
C1607      C1608   1.403       .  A
C1608      F1609   1.354       .  S
C1613      C1614   1.415       .  A
C1613      C1618   1.430       .  A
C1613      F1620   1.357       .  S
C1614      C1615   1.411       .  A
C1615      C1616   1.408       .  A
C1615      F1622   1.359       .  S
C1616      C1617   1.416       .  A
C1616      F1621   1.358       .  S
C1617      C1618   1.421       .  A
C1618      F1619   1.357       .  S
C1623      C1624   1.407       .  A
C1623      C1628   1.398       .  A
C1623      F1630   1.358       .  S
C1624      C1625   1.410       .  A
C1625      C1626   1.407       .  A
C1625      F1632   1.357       .  S
C1626      C1627   1.407       .  A
C1626      F1631   1.357       .  S
C1627      C1628   1.407       .  A
C1628      F1629   1.357       .  S
C1633      C1634   1.415       .  A
C1633      C1638   1.429       .  A
C1633      F1640   1.357       .  S
C1634      C1635   1.408       .  A
C1635      C1636   1.407       .  A
C1635      F1642   1.358       .  S
C1636      C1637   1.418       .  A
C1636      F1641   1.358       .  S
C1637      C1638   1.420       .  A
C1638      F1639   1.357       .  S
C1643      C1644   1.407       .  A
C1643      C1648   1.405       .  A
C1643      F1650   1.358       .  S
C1644      C1645   1.408       .  A
C1645      C1646   1.401       .  A
C1645      F1652   1.356       .  S
C1646      C1647   1.409       .  A
C1646      F1651   1.358       .  S
C1647      C1648   1.412       .  A
C1648      F1649   1.358       .  S
C1653      C1654   1.401       .  A
C1653      C1658   1.393       .  A
C1653      F1660   1.358       .  S
C1654      C1655   1.401       .  A
C1655      C1656   1.388       .  A
C1655      F1662   1.358       .  S
C1656      C1657   1.409       .  A
C1656      F1661   1.358       .  S
C1657      C1658   1.409       .  A
C1658      F1659   1.358       .  S
C1663      C1664   1.405       .  A
C1663      C1668   1.397       .  A
C1663      F1670   1.358       .  S
C1664      C1665   1.391       .  A
C1665      C1666   1.384       .  A
C1665      F1672   1.359       .  S
C1666      C1667   1.412       .  A
C1666      F1671   1.358       .  S
C1667      C1668   1.400       .  A
C1668      F1669   1.357       .  S
C1673      C1674   1.418       .  A
C1673      C1678   1.411       .  A
C1673      F1680   1.358       .  S
C1674      C1675   1.418       .  A
C1675      C1676   1.427       .  A
C1675      F1682   1.357       .  S
C1676      C1677   1.415       .  A
C1676      F1681   1.357       .  S
C1677      C1678   1.407       .  A
C1678      F1679   1.358       .  S
C1683      C1684   1.413       .  A
C1683      C1688   1.384       .  A
C1683      F1690   1.356       .  S
C1684      C1685   1.413       .  A
C1685      C1686   1.403       .  A
C1685      F1692   1.357       .  S
C1686      C1687   1.405       .  A
C1686      F1691   1.358       .  S
C1687      C1688   1.399       .  A
C1688      F1689   1.359       .  S
C1693      C1694   1.414       .  A
C1693      C1698   1.418       .  A
C1693      F1700   1.357       .  S
C1694      C1695   1.415       .  A
C1695      C1696   1.392       .  A
C1695      F1702   1.358       .  S
C1696      C1697   1.401       .  A
C1696      F1701   1.359       .  S
C1697      C1698   1.411       .  A
C1698      F1699   1.357       .  S
C1703      C1704   1.406       .  A
C1703      C1708   1.402       .  A
C1703      F1710   1.358       .  S
C1704      C1705   1.421       .  A
C1705      C1706   1.392       .  A
C1705      F1712   1.358       .  S
C1706      C1707   1.395       .  A
C1706      F1711   1.359       .  S
C1707      C1708   1.409       .  A
C1708      F1709   1.358       .  S
C1713      C1714   1.405       .  A
C1713      C1718   1.391       .  A
C1713      F1720   1.358       .  S
C1714      C1715   1.410       .  A
C1715      C1716   1.413       .  A
C1715      F1722   1.357       .  S
C1716      C1717   1.411       .  A
C1716      F1721   1.357       .  S
C1717      C1718   1.410       .  A
C1718      F1719   1.359       .  S
C1723      C1724   1.408       .  A
C1723      C1728   1.401       .  A
C1723      F1730   1.358       .  S
C1724      C1725   1.402       .  A
C1725      C1726   1.399       .  A
C1725      F1732   1.358       .  S
C1726      C1727   1.417       .  A
C1726      F1731   1.358       .  S
C1727      C1728   1.410       .  A
C1728      F1729   1.358       .  S
C1733      C1734   1.415       .  A
C1733      C1738   1.395       .  A
C1733      F1740   1.359       .  S
C1734      C1735   1.410       .  A
C1735      C1736   1.413       .  A
C1735      F1742   1.357       .  S
C1736      C1737   1.411       .  A
C1736      F1741   1.357       .  S
C1737      C1738   1.403       .  A
C1738      F1739   1.359       .  S
C1743      C1744   1.409       .  A
C1743      C1748   1.400       .  A
C1743      F1750   1.358       .  S
C1744      C1745   1.417       .  A
C1745      C1746   1.406       .  A
C1745      F1752   1.357       .  S
C1746      C1747   1.405       .  A
C1746      F1751   1.357       .  S
C1747      C1748   1.412       .  A
C1748      F1749   1.359       .  S
C1753      C1754   1.417       .  A
C1753      C1758   1.409       .  A
C1753      F1760   1.357       .  S
C1754      C1755   1.419       .  A
C1755      C1756   1.430       .  A
C1755      F1762   1.357       .  S
C1756      C1757   1.416       .  A
C1756      F1761   1.357       .  S
C1757      C1758   1.410       .  A
C1758      F1759   1.358       .  S
C1763      C1764   1.410       .  A
C1763      C1768   1.398       .  A
C1763      F1770   1.358       .  S
C1764      C1765   1.415       .  A
C1765      C1766   1.388       .  A
C1765      F1772   1.358       .  S
C1766      C1767   1.398       .  A
C1766      F1771   1.359       .  S
C1767      C1768   1.405       .  A
C1768      F1769   1.358       .  S
C1773      C1774   1.418       .  A
C1773      C1778   1.390       .  A
C1773      F1780   1.359       .  S
C1774      C1775   1.411       .  A
C1775      C1776   1.416       .  A
C1775      F1782   1.357       .  S
C1776      C1777   1.411       .  A
C1776      F1781   1.357       .  S
C1777      C1778   1.396       .  A
C1778      F1779   1.359       .  S
C1783      C1784   1.420       .  A
C1783      C1788   1.396       .  A
C1783      F1790   1.357       .  S
C1784      C1785   1.408       .  A
C1785      C1786   1.402       .  A
C1785      F1792   1.358       .  S
C1786      C1787   1.409       .  A
C1786      F1791   1.358       .  S
C1787      C1788   1.397       .  A
C1788      F1789   1.359       .  S
C1793      C1794   1.420       .  A
C1793      C1798   1.412       .  A
C1793      F1800   1.358       .  S
C1794      C1795   1.415       .  A
C1795      C1796   1.425       .  A
C1795      F1802   1.356       .  S
C1796      C1797   1.415       .  A
C1796      F1801   1.357       .  S
C1797      C1798   1.408       .  A
C1798      F1799   1.358       .  S
C1803      C1804   1.394       .  A
C1803      C1808   1.390       .  A
C1803      F1810   1.356       .  S
C1804      C1805   1.401       .  A
C1805      C1806   1.396       .  A
C1805      F1812   1.358       .  S
C1806      C1807   1.409       .  A
C1806      F1811   1.358       .  S
C1807      C1808   1.414       .  A
C1808      F1809   1.358       .  S
C1813      C1814   1.412       .  A
C1813      C1818   1.413       .  A
C1813      F1820   1.357       .  S
C1814      C1815   1.411       .  A
C1815      C1816   1.394       .  A
C1815      F1822   1.359       .  S
C1816      C1817   1.405       .  A
C1816      F1821   1.359       .  S
C1817      C1818   1.410       .  A
C1818      F1819   1.357       .  S
C1823      C1824   1.418       .  A
C1823      C1828   1.402       .  A
C1823      F1830   1.357       .  S
C1824      C1825   1.410       .  A
C1825      C1826   1.403       .  A
C1825      F1832   1.358       .  S
C1826      C1827   1.410       .  A
C1826      F1831   1.358       .  S
C1827      C1828   1.404       .  A
C1828      F1829   1.358       .  S
C1833      C1834   1.413       .  A
C1833      C1838   1.419       .  A
C1833      F1840   1.357       .  S
C1834      C1835   1.419       .  A
C1835      C1836   1.391       .  A
C1835      F1842   1.356       .  S
C1836      C1837   1.397       .  A
C1836      F1841   1.359       .  S
C1837      C1838   1.412       .  A
C1838      F1839   1.357       .  S
C1843      C1844   1.407       .  A
C1843      C1848   1.404       .  A
C1843      F1850   1.357       .  S
C1844      C1845   1.421       .  A
C1845      C1846   1.397       .  A
C1845      F1852   1.355       .  S
C1846      C1847   1.397       .  A
C1846      F1851   1.359       .  S
C1847      C1848   1.412       .  A
C1848      F1849   1.358       .  S
C1853      C1854   1.419       .  A
C1853      C1858   1.430       .  A
C1853      F1860   1.357       .  S
C1854      C1855   1.416       .  A
C1855      C1856   1.405       .  A
C1855      F1862   1.355       .  S
C1856      C1857   1.409       .  A
C1856      F1861   1.359       .  S
C1857      C1858   1.415       .  A
C1858      F1859   1.356       .  S
C1863      C1864   1.401       .  A
C1863      C1868   1.389       .  A
C1863      F1870   1.358       .  S
C1864      C1865   1.403       .  A
C1865      C1866   1.392       .  A
C1865      F1872   1.358       .  S
C1866      C1867   1.411       .  A
C1866      F1871   1.358       .  S
C1867      C1868   1.412       .  A
C1868      F1869   1.358       .  S
C1873      C1874   1.414       .  A
C1873      C1878   1.421       .  A
C1873      F1880   1.357       .  S
C1874      C1875   1.409       .  A
C1875      C1876   1.391       .  A
C1875      F1882   1.359       .  S
C1876      C1877   1.408       .  A
C1876      F1881   1.358       .  S
C1877      C1878   1.413       .  A
C1878      F1879   1.357       .  S
C1883      C1884   1.420       .  A
C1883      C1888   1.396       .  A
C1883      F1890   1.358       .  S
C1884      C1885   1.408       .  A
C1885      C1886   1.403       .  A
C1885      F1892   1.358       .  S
C1886      C1887   1.407       .  A
C1886      F1891   1.357       .  S
C1887      C1888   1.397       .  A
C1888      F1889   1.359       .  S
C1893      C1894   1.416       .  A
C1893      C1898   1.400       .  A
C1893      F1900   1.358       .  S
C1894      C1895   1.413       .  A
C1895      C1896   1.417       .  A
C1895      F1902   1.357       .  S
C1896      C1897   1.412       .  A
C1896      F1901   1.357       .  S
C1897      C1898   1.404       .  A
C1898      F1899   1.359       .  S
C1903      C1904   1.410       .  A
C1903      C1908   1.399       .  A
C1903      F1910   1.358       .  S
C1904      C1905   1.417       .  A
C1905      C1906   1.399       .  A
C1905      F1912   1.358       .  S
C1906      C1907   1.403       .  A
C1906      F1911   1.358       .  S
C1907      C1908   1.408       .  A
C1908      F1909   1.358       .  S
C1913      C1914   1.415       .  A
C1913      C1918   1.382       .  A
C1913      F1920   1.359       .  S
C1914      C1915   1.409       .  A
C1915      C1916   1.414       .  A
C1915      F1922   1.357       .  S
C1916      C1917   1.411       .  A
C1916      F1921   1.357       .  S
C1917      C1918   1.399       .  A
C1918      F1919   1.360       .  S
C1923      C1924   1.411       .  A
C1923      C1928   1.401       .  A
C1923      F1930   1.358       .  S
C1924      C1925   1.415       .  A
C1925      C1926   1.400       .  A
C1925      F1932   1.358       .  S
C1926      C1927   1.401       .  A
C1926      F1931   1.358       .  S
C1927      C1928   1.407       .  A
C1928      F1929   1.358       .  S
C1933      C1934   1.410       .  A
C1933      C1938   1.412       .  A
C1933      F1940   1.357       .  S
C1934      C1935   1.415       .  A
C1935      C1936   1.394       .  A
C1935      F1942   1.358       .  S
C1936      C1937   1.398       .  A
C1936      F1941   1.359       .  S
C1937      C1938   1.408       .  A
C1938      F1939   1.357       .  S
C1943      C1944   1.417       .  A
C1943      C1948   1.401       .  A
C1943      F1950   1.357       .  S
C1944      C1945   1.410       .  A
C1945      C1946   1.401       .  A
C1945      F1952   1.358       .  S
C1946      C1947   1.407       .  A
C1946      F1951   1.358       .  S
C1947      C1948   1.400       .  A
C1948      F1949   1.358       .  S
C1953      C1954   1.410       .  A
C1953      C1958   1.416       .  A
C1953      F1960   1.357       .  S
C1954      C1955   1.419       .  A
C1955      C1956   1.381       .  A
C1955      F1962   1.359       .  S
C1956      C1957   1.393       .  A
C1956      F1961   1.360       .  S
C1957      C1958   1.410       .  A
C1958      F1959   1.357       .  S
C1963      C1964   1.419       .  A
C1963      C1968   1.402       .  A
C1963      F1970   1.356       .  S
C1964      C1965   1.408       .  A
C1965      C1966   1.400       .  A
C1965      F1972   1.358       .  S
C1966      C1967   1.412       .  A
C1966      F1971   1.359       .  S
C1967      C1968   1.401       .  A
C1968      F1969   1.358       .  S
C1973      C1974   1.412       .  A
C1973      C1978   1.411       .  A
C1973      F1980   1.357       .  S
C1974      C1975   1.413       .  A
C1975      C1976   1.395       .  A
C1975      F1982   1.357       .  S
C1976      C1977   1.401       .  A
C1976      F1981   1.359       .  S
C1977      C1978   1.407       .  A
C1978      F1979   1.357       .  S
C1983      C1984   1.419       .  A
C1983      C1988   1.404       .  A
C1983      F1990   1.358       .  S
C1984      C1985   1.407       .  A
C1985      C1986   1.406       .  A
C1985      F1992   1.357       .  S
C1986      C1987   1.410       .  A
C1986      F1991   1.358       .  S
C1987      C1988   1.402       .  A
C1988      F1989   1.358       .  S
C1993      C1994   1.415       .  A
C1993      C1998   1.389       .  A
C1993      F2000   1.359       .  S
C1994      C1995   1.410       .  A
C1995      C1996   1.410       .  A
C1995      F2002   1.357       .  S
C1996      C1997   1.406       .  A
C1996      F2001   1.357       .  S
C1997      C1998   1.397       .  A
C1998      F1999   1.359       .  S
C2003      C2004   1.419       .  A
C2003      C2008   1.401       .  A
C2003      F2010   1.358       .  S
C2004      C2005   1.407       .  A
C2005      C2006   1.403       .  A
C2005      F2012   1.358       .  S
C2006      C2007   1.410       .  A
C2006      F2011   1.358       .  S
C2007      C2008   1.401       .  A
C2008      F2009   1.358       .  S
C2013      C2014   1.413       .  A
C2013      C2018   1.412       .  A
C2013      F2020   1.357       .  S
C2014      C2015   1.414       .  A
C2015      C2016   1.390       .  A
C2015      F2022   1.357       .  S
C2016      C2017   1.400       .  A
C2016      F2021   1.359       .  S
C2017      C2018   1.407       .  A
C2018      F2019   1.357       .  S
C2023      C2024   1.407       .  A
C2023      C2028   1.402       .  A
C2023      F2030   1.357       .  S
C2024      C2025   1.422       .  A
C2025      C2026   1.401       .  A
C2025      F2032   1.357       .  S
C2026      C2027   1.400       .  A
C2026      F2031   1.358       .  S
C2027      C2028   1.410       .  A
C2028      F2029   1.358       .  S
C2033      C2034   1.418       .  A
C2033      C2038   1.425       .  A
C2033      F2040   1.357       .  S
C2034      C2035   1.417       .  A
C2035      C2036   1.407       .  A
C2035      F2042   1.358       .  S
C2036      C2037   1.407       .  A
C2036      F2041   1.358       .  S
C2037      C2038   1.414       .  A
C2038      F2039   1.357       .  S
C2043      C2044   1.393       .  A
C2043      C2048   1.387       .  A
C2043      F2050   1.355       .  S
C2044      C2045   1.402       .  A
C2045      C2046   1.395       .  A
C2045      F2052   1.358       .  S
C2046      C2047   1.406       .  A
C2046      F2051   1.358       .  S
C2047      C2048   1.413       .  A
C2048      F2049   1.359       .  S
C2053      C2054   1.414       .  A
C2053      C2058   1.424       .  A
C2053      F2060   1.357       .  S
C2054      C2055   1.412       .  A
C2055      C2056   1.390       .  A
C2055      F2062   1.358       .  S
C2056      C2057   1.406       .  A
C2056      F2061   1.359       .  S
C2057      C2058   1.415       .  A
C2058      F2059   1.357       .  S
C2063      C2064   1.412       .  A
C2063      C2068   1.408       .  A
C2063      F2070   1.358       .  S
C2064      C2065   1.395       .  A
C2065      C2066   1.394       .  A
C2065      F2072   1.358       .  S
C2066      C2067   1.424       .  A
C2066      F2071   1.358       .  S
C2067      C2068   1.408       .  A
C2068      F2069   1.358       .  S
C2073      C2074   1.414       .  A
C2073      C2078   1.419       .  A
C2073      F2080   1.357       .  S
C2074      C2075   1.405       .  A
C2075      C2076   1.396       .  A
C2075      F2082   1.359       .  S
C2076      C2077   1.413       .  A
C2076      F2081   1.358       .  S
C2077      C2078   1.413       .  A
C2078      F2079   1.357       .  S
C2083      C2084   1.409       .  A
C2083      C2088   1.400       .  A
C2083      F2090   1.358       .  S
C2084      C2085   1.402       .  A
C2085      C2086   1.399       .  A
C2085      F2092   1.358       .  S
C2086      C2087   1.419       .  A
C2086      F2091   1.358       .  S
C2087      C2088   1.408       .  A
C2088      F2089   1.358       .  S
C2093      C2094   1.407       .  A
C2093      C2098   1.391       .  A
C2093      F2100   1.359       .  S
C2094      C2095   1.411       .  A
C2095      C2096   1.419       .  A
C2095      F2102   1.357       .  S
C2096      C2097   1.415       .  A
C2096      F2101   1.357       .  S
C2097      C2098   1.413       .  A
C2098      F2099   1.358       .  S
C2103      C2104   1.410       .  A
C2103      C2108   1.402       .  A
C2103      F2110   1.358       .  S
C2104      C2105   1.400       .  A
C2105      C2106   1.400       .  A
C2105      F2112   1.358       .  S
C2106      C2107   1.420       .  A
C2106      F2111   1.358       .  S
C2107      C2108   1.408       .  A
C2108      F2109   1.358       .  S
C2113      C2114   1.414       .  A
C2113      C2118   1.396       .  A
C2113      F2120   1.359       .  S
C2114      C2115   1.412       .  A
C2115      C2116   1.414       .  A
C2115      F2122   1.357       .  S
C2116      C2117   1.409       .  A
C2116      F2121   1.357       .  S
C2117      C2118   1.403       .  A
C2118      F2119   1.359       .  S
C2123      C2124   1.409       .  A
C2123      C2128   1.401       .  A
C2123      F2130   1.358       .  S
C2124      C2125   1.418       .  A
C2125      C2126   1.400       .  A
C2125      F2132   1.358       .  S
C2126      C2127   1.402       .  A
C2126      F2131   1.358       .  S
C2127      C2128   1.410       .  A
C2128      F2129   1.358       .  S
C2133      C2134   1.418       .  A
C2133      C2138   1.426       .  A
C2133      F2140   1.357       .  S
C2134      C2135   1.417       .  A
C2135      C2136   1.407       .  A
C2135      F2142   1.357       .  S
C2136      C2137   1.408       .  A
C2136      F2141   1.358       .  S
C2137      C2138   1.414       .  A
C2138      F2139   1.357       .  S
C2143      C2144   1.401       .  A
C2143      C2148   1.399       .  A
C2143      F2150   1.358       .  S
C2144      C2145   1.397       .  A
C2145      C2146   1.387       .  A
C2145      F2152   1.359       .  S
C2146      C2147   1.415       .  A
C2146      F2151   1.359       .  S
C2147      C2148   1.411       .  A
C2148      F2149   1.358       .  S
C2153      C2154   1.410       .  A
C2153      C2158   1.412       .  A
C2153      F2160   1.357       .  S
C2154      C2155   1.414       .  A
C2155      C2156   1.390       .  A
C2155      F2162   1.358       .  S
C2156      C2157   1.396       .  A
C2156      F2161   1.359       .  S
C2157      C2158   1.409       .  A
C2158      F2159   1.357       .  S
C2163      C2164   1.410       .  A
C2163      C2168   1.401       .  A
C2163      F2170   1.359       .  S
C2164      C2165   1.401       .  A
C2165      C2166   1.404       .  A
C2165      F2172   1.358       .  S
C2166      C2167   1.418       .  A
C2166      F2171   1.357       .  S
C2167      C2168   1.408       .  A
C2168      F2169   1.358       .  S
C2173      C2174   1.408       .  A
C2173      C2178   1.411       .  A
C2173      F2180   1.357       .  S
C2174      C2175   1.419       .  A
C2175      C2176   1.387       .  A
C2175      F2182   1.360       .  S
C2176      C2177   1.395       .  A
C2176      F2181   1.360       .  S
C2177      C2178   1.408       .  A
C2178      F2179   1.356       .  S
C2183      C2184   1.410       .  A
C2183      C2188   1.406       .  A
C2183      F2190   1.358       .  S
C2184      C2185   1.420       .  A
C2185      C2186   1.404       .  A
C2185      F2192   1.357       .  S
C2186      C2187   1.401       .  A
C2186      F2191   1.358       .  S
C2187      C2188   1.411       .  A
C2188      F2189   1.358       .  S
C2193      C2194   1.413       .  A
C2193      C2198   1.411       .  A
C2193      F2200   1.357       .  S
C2194      C2195   1.412       .  A
C2195      C2196   1.391       .  A
C2195      F2202   1.358       .  S
C2196      C2197   1.402       .  A
C2196      F2201   1.359       .  S
C2197      C2198   1.406       .  A
C2198      F2199   1.357       .  S
C2203      C2204   1.422       .  A
C2203      C2208   1.402       .  A
C2203      F2210   1.358       .  S
C2204      C2205   1.406       .  A
C2205      C2206   1.401       .  A
C2205      F2212   1.358       .  S
C2206      C2207   1.410       .  A
C2206      F2211   1.358       .  S
C2207      C2208   1.399       .  A
C2208      F2209   1.358       .  S
C2213      C2214   1.405       .  A
C2213      C2218   1.405       .  A
C2213      F2220   1.358       .  S
C2214      C2215   1.398       .  A
C2215      C2216   1.394       .  A
C2215      F2222   1.359       .  S
C2216      C2217   1.412       .  A
C2216      F2221   1.358       .  S
C2217      C2218   1.409       .  A
C2218      F2219   1.358       .  S
C2223      C2224   1.408       .  A
C2223      C2228   1.403       .  A
C2223      F2230   1.358       .  S
C2224      C2225   1.421       .  A
C2225      C2226   1.404       .  A
C2225      F2232   1.357       .  S
C2226      C2227   1.401       .  A
C2226      F2231   1.358       .  S
C2227      C2228   1.411       .  A
C2228      F2229   1.358       .  S
C2233      C2234   1.412       .  A
C2233      C2238   1.409       .  A
C2233      F2240   1.357       .  S
C2234      C2235   1.413       .  A
C2235      C2236   1.389       .  A
C2235      F2242   1.359       .  S
C2236      C2237   1.399       .  A
C2236      F2241   1.359       .  S
C2237      C2238   1.405       .  A
C2238      F2239   1.357       .  S
C2243      C2244   1.399       .  A
C2243      C2248   1.404       .  A
C2243      F2250   1.358       .  S
C2244      C2245   1.412       .  A
C2245      C2246   1.405       .  A
C2245      F2252   1.358       .  S
C2246      C2247   1.409       .  A
C2246      F2251   1.358       .  S
C2247      C2248   1.420       .  A
C2248      F2249   1.357       .  S
C2253      C2254   1.417       .  A
C2253      C2258   1.386       .  A
C2253      F2260   1.358       .  S
C2254      C2255   1.406       .  A
C2255      C2256   1.408       .  A
C2255      F2262   1.357       .  S
C2256      C2257   1.407       .  A
C2256      F2261   1.357       .  S
C2257      C2258   1.394       .  A
C2258      F2259   1.359       .  S
C2263      C2264   1.417       .  A
C2263      C2268   1.402       .  A
C2263      F2270   1.357       .  S
C2264      C2265   1.411       .  A
C2265      C2266   1.406       .  A
C2265      F2272   1.358       .  S
C2266      C2267   1.410       .  A
C2266      F2271   1.358       .  S
C2267      C2268   1.401       .  A
C2268      F2269   1.358       .  S
C2273      C2274   1.393       .  A
C2273      C2278   1.386       .  A
C2273      F2280   1.359       .  S
C2274      C2275   1.409       .  A
C2275      C2276   1.411       .  A
C2275      F2282   1.357       .  S
C2276      C2277   1.407       .  A
C2276      F2281   1.357       .  S
C2277      C2278   1.418       .  A
C2278      F2279   1.359       .  S
C2283      C2284   1.399       .  A
C2283      C2288   1.399       .  A
C2283      F2290   1.358       .  S
C2284      C2285   1.410       .  A
C2285      C2286   1.403       .  A
C2285      F2292   1.359       .  S
C2286      C2287   1.411       .  A
C2286      F2291   1.358       .  S
C2287      C2288   1.417       .  A
C2288      F2289   1.355       .  S
C2293      C2294   1.410       .  A
C2293      C2298   1.412       .  A
C2293      F2300   1.357       .  S
C2294      C2295   1.417       .  A
C2295      C2296   1.388       .  A
C2295      F2302   1.359       .  S
C2296      C2297   1.396       .  A
C2296      F2301   1.359       .  S
C2297      C2298   1.408       .  A
C2298      F2299   1.357       .  S
C2303      C2304   1.408       .  A
C2303      C2308   1.398       .  A
C2303      F2310   1.358       .  S
C2304      C2305   1.415       .  A
C2305      C2306   1.399       .  A
C2305      F2312   1.358       .  S
C2306      C2307   1.400       .  A
C2306      F2311   1.358       .  S
C2307      C2308   1.406       .  A
C2308      F2309   1.358       .  S
C2313      C2314   1.411       .  A
C2313      C2318   1.410       .  A
C2313      F2320   1.357       .  S
C2314      C2315   1.416       .  A
C2315      C2316   1.392       .  A
C2315      F2322   1.358       .  S
C2316      C2317   1.398       .  A
C2316      F2321   1.359       .  S
C2317      C2318   1.406       .  A
C2318      F2319   1.357       .  S
C2323      C2324   1.409       .  A
C2323      C2328   1.407       .  A
C2323      F2330   1.357       .  S
C2324      C2325   1.417       .  A
C2325      C2326   1.400       .  A
C2325      F2332   1.358       .  S
C2326      C2327   1.401       .  A
C2326      F2331   1.358       .  S
C2327      C2328   1.408       .  A
C2328      F2329   1.358       .  S
C2333      C2334   1.408       .  A
C2333      C2338   1.413       .  A
C2333      F2340   1.356       .  S
C2334      C2335   1.421       .  A
C2335      C2336   1.386       .  A
C2335      F2342   1.360       .  S
C2336      C2337   1.394       .  A
C2336      F2341   1.360       .  S
C2337      C2338   1.409       .  A
C2338      F2339   1.356       .  S
C2343      C2344   1.408       .  A
C2343      C2348   1.400       .  A
C2343      F2350   1.358       .  S
C2344      C2345   1.418       .  A
C2345      C2346   1.400       .  A
C2345      F2352   1.355       .  S
C2346      C2347   1.401       .  A
C2346      F2351   1.358       .  S
C2347      C2348   1.412       .  A
C2348      F2349   1.359       .  S
C2353      C2354   1.412       .  A
C2353      C2358   1.393       .  A
C2353      F2360   1.358       .  S
C2354      C2355   1.412       .  A
C2355      C2356   1.408       .  A
C2355      F2362   1.357       .  S
C2356      C2357   1.405       .  A
C2356      F2361   1.357       .  S
C2357      C2358   1.401       .  A
C2358      F2359   1.359       .  S
C2363      C2364   1.416       .  A
C2363      C2368   1.402       .  A
C2363      F2370   1.359       .  S
C2364      C2365   1.406       .  A
C2365      C2366   1.407       .  A
C2365      F2372   1.357       .  S
C2366      C2367   1.410       .  A
C2366      F2371   1.357       .  S
C2367      C2368   1.402       .  A
C2368      F2369   1.358       .  S
C2373      C2374   1.411       .  A
C2373      C2378   1.415       .  A
C2373      F2380   1.357       .  S
C2374      C2375   1.416       .  A
C2375      C2376   1.393       .  A
C2375      F2382   1.358       .  S
C2376      C2377   1.397       .  A
C2376      F2381   1.359       .  S
C2377      C2378   1.410       .  A
C2378      F2379   1.357       .  S
C2383      C2384   1.420       .  A
C2383      C2388   1.401       .  A
C2383      F2390   1.357       .  S
C2384      C2385   1.407       .  A
C2385      C2386   1.399       .  A
C2385      F2392   1.358       .  S
C2386      C2387   1.408       .  A
C2386      F2391   1.358       .  S
C2387      C2388   1.400       .  A
C2388      F2389   1.358       .  S
C2393      C2394   1.409       .  A
C2393      C2398   1.392       .  A
C2393      F2400   1.359       .  S
C2394      C2395   1.410       .  A
C2395      C2396   1.416       .  A
C2395      F2402   1.357       .  S
C2396      C2397   1.413       .  A
C2396      F2401   1.357       .  S
C2397      C2398   1.408       .  A
C2398      F2399   1.359       .  S
C2403      C2404   1.407       .  A
C2403      C2408   1.402       .  A
C2403      F2410   1.358       .  S
C2404      C2405   1.419       .  A
C2405      C2406   1.403       .  A
C2405      F2412   1.357       .  S
C2406      C2407   1.403       .  A
C2406      F2411   1.358       .  S
C2407      C2408   1.413       .  A
C2408      F2409   1.358       .  S
C2413      C2414   1.412       .  A
C2413      C2418   1.414       .  A
C2413      F2420   1.357       .  S
C2414      C2415   1.412       .  A
C2415      C2416   1.390       .  A
C2415      F2422   1.359       .  S
C2416      C2417   1.403       .  A
C2416      F2421   1.359       .  S
C2417      C2418   1.410       .  A
C2418      F2419   1.357       .  S
C2423      C2424   1.409       .  A
C2423      C2428   1.395       .  A
C2423      F2430   1.358       .  S
C2424      C2425   1.417       .  A
C2425      C2426   1.402       .  A
C2425      F2432   1.358       .  S
C2426      C2427   1.403       .  A
C2426      F2431   1.358       .  S
C2427      C2428   1.408       .  A
C2428      F2429   1.359       .  S
C2433      C2434   1.411       .  A
C2433      C2438   1.392       .  A
C2433      F2440   1.357       .  S
C2434      C2435   1.412       .  A
C2435      C2436   1.417       .  A
C2435      F2442   1.357       .  S
C2436      C2437   1.413       .  A
C2436      F2441   1.357       .  S
C2437      C2438   1.406       .  A
C2438      F2439   1.359       .  S
C2443      C2444   1.410       .  A
C2443      C2448   1.404       .  A
C2443      F2450   1.358       .  S
C2444      C2445   1.416       .  A
C2445      C2446   1.400       .  A
C2445      F2452   1.357       .  S
C2446      C2447   1.405       .  A
C2446      F2451   1.358       .  S
C2447      C2448   1.411       .  A
C2448      F2449   1.358       .  S
C2453      C2454   1.412       .  A
C2453      C2458   1.414       .  A
C2453      F2460   1.357       .  S
C2454      C2455   1.415       .  A
C2455      C2456   1.390       .  A
C2455      F2462   1.357       .  S
C2456      C2457   1.397       .  A
C2456      F2461   1.359       .  S
C2457      C2458   1.409       .  A
C2458      F2459   1.357       .  S
C2463      C2464   1.411       .  A
C2463      C2468   1.408       .  A
C2463      F2470   1.358       .  S
C2464      C2465   1.419       .  A
C2465      C2466   1.401       .  A
C2465      F2472   1.356       .  S
C2466      C2467   1.401       .  A
C2466      F2471   1.358       .  S
C2467      C2468   1.412       .  A
C2468      F2469   1.358       .  S
C2473      C2474   1.414       .  A
C2473      C2478   1.394       .  A
C2473      F2480   1.359       .  S
C2474      C2475   1.414       .  A
C2475      C2476   1.419       .  A
C2475      F2482   1.357       .  S
C2476      C2477   1.412       .  A
C2476      F2481   1.357       .  S
C2477      C2478   1.407       .  A
C2478      F2479   1.359       .  S
C2483      C2484   1.409       .  A
C2483      C2488   1.400       .  A
C2483      F2490   1.358       .  S
C2484      C2485   1.419       .  A
C2485      C2486   1.405       .  A
C2485      F2492   1.358       .  S
C2486      C2487   1.405       .  A
C2486      F2491   1.358       .  S
C2487      C2488   1.410       .  A
C2488      F2489   1.358       .  S
C2493      C2494   1.409       .  A
C2493      C2498   1.411       .  A
C2493      F2500   1.357       .  S
C2494      C2495   1.408       .  A
C2495      C2496   1.391       .  A
C2495      F2502   1.359       .  S
C2496      C2497   1.408       .  A
C2496      F2501   1.358       .  S
C2497      C2498   1.412       .  A
C2498      F2499   1.357       .  S
C2503      C2504   1.410       .  A
C2503      C2508   1.398       .  A
C2503      F2510   1.357       .  S
C2504      C2505   1.418       .  A
C2505      C2506   1.401       .  A
C2505      F2512   1.358       .  S
C2506      C2507   1.402       .  A
C2506      F2511   1.358       .  S
C2507      C2508   1.408       .  A
C2508      F2509   1.358       .  S
