geometry optimzed in LAMMPS
_audit_creation_date              2020-11-30 
_audit_creation_method            'lammps2cif' 
_symmetry_space_group_name_H-M    'P1' 
_symmetry_Int_Tables_number       1 
_symmetry_cell_setting            triclinic 
loop_ 
_symmetry_equiv_pos_as_xyz 
  x,y,z 
_cell_length_a                    33.82939507 
_cell_length_b                    34.36756238109813 
_cell_length_c                    50.73910901109977 
_cell_angle_alpha                 91.2502779290629 
_cell_angle_beta                  89.40408597320418 
_cell_angle_gamma                 122.42002230614992 
loop_ 
_atom_site_label 
_atom_site_type_symbol 
_atom_site_fract_x 
_atom_site_fract_y 
_atom_site_fract_z 
_atom_site_charge 
C1          C  0.33877326  0.17237271  0.02569474     0.30200
C2          C  0.34619397  0.16876065  0.47255303     0.30200
C3          C  0.35943115  0.14466160  0.01480273    -0.06000
C4          C  0.29251945  0.15283430  0.01065316    -0.06800
C5          C  0.36983384  0.21990701  0.01231701    -0.06700
C6          C  0.36115991  0.14097624  0.48769759    -0.06000
C7          C  0.29629123  0.14906210  0.48362053    -0.06800
C8          C  0.37396140  0.21659545  0.48528544    -0.06700
C9          C  0.37782031  0.11283104  0.48223735    -0.32100
N10         N  0.38861249  0.10175820  0.50537772     0.14400
C11         C  0.37777737  0.12101848  0.02541685    -0.32100
H12         H  0.38341144  0.11845927  0.04610252     0.16400
C13         C  0.25153355  0.12390921  0.47384307    -0.31000
N14         N  0.22088514  0.11537984  0.99364454     0.13200
C15         C  0.24538268  0.13324143  0.01642229    -0.31000
C16         C  0.39609028  0.25963704  0.47508980    -0.31300
N17         N  0.40408942  0.29007158  0.99470955     0.13700
H18         H  0.40285866  0.26784888  0.45439994     0.16300
C19         C  0.38639053  0.26644110  0.01738999    -0.31300
H20         H  0.38364257  0.28179252  0.03559544     0.16300
H21         H  0.23006806  0.13016970  0.03568163     0.16300
H22         H  0.38300116  0.10216526  0.46300553     0.16400
H23         H  0.24167197  0.11201797  0.45363473     0.16300
C24         C  0.34105905  0.16687698  0.27549403     0.30200
C25         C  0.34537961  0.16077792  0.22225389     0.30200
C26         C  0.36853613  0.14591755  0.26460072    -0.06000
C27         C  0.29305893  0.13894763  0.26140513    -0.06800
C28         C  0.36377842  0.21342643  0.26085765    -0.06700
C29         C  0.36912160  0.14110797  0.23747119    -0.06000
C30         C  0.29597327  0.13405382  0.23438212    -0.06800
C31         C  0.36626646  0.20913616  0.23383456    -0.06700
C32         C  0.38960416  0.11639631  0.23203630    -0.32100
N33         N  0.40424998  0.10917696  0.25508417     0.14400
C34         C  0.39138796  0.12660324  0.27516214    -0.32100
H35         H  0.39667040  0.12378558  0.29586810     0.16400
C36         C  0.25129296  0.10571929  0.22501297    -0.31000
N37         N  0.22071842  0.09608165  0.24493937     0.13200
C38         C  0.24560059  0.11647476  0.26743707    -0.31000
C39         C  0.38435199  0.25137099  0.22300727    -0.31300
N40         N  0.39225641  0.28217609  0.24243059     0.13700
H41         H  0.39014307  0.25893082  0.20220549     0.16300
C42         C  0.37868798  0.25958420  0.26567503    -0.31300
H43         H  0.37863636  0.27544084  0.28431693     0.16300
H44         H  0.23047911  0.11537963  0.28649391     0.16300
H45         H  0.39253389  0.10343483  0.21300958     0.16400
H46         H  0.24139394  0.09402865  0.20478645     0.16300
N47         N  0.47618696  0.48778399  0.03470523    -0.05900
N48         N  0.46368314  0.47271538  0.05929040    -0.58100
N49         N  0.46887335  0.06866592  0.50420473    -0.05600
N50         N  0.46080080  0.10212200  0.50667153    -0.60200
N51         N  0.42929495  0.02832729  0.50361729    -0.05200
N52         N  0.39322540  0.03322977  0.50561131    -0.58000
N53         N  0.01617076  0.02819307  0.03506951    -0.04900
N54         N  0.03099160  0.04070241  0.05996121    -0.60500
C55         C  0.49839100  0.50553061  0.07520106     0.96200
C56         C  0.41359995  0.07935919  0.50807242     0.96000
N57         N  0.06118075  0.10984843  0.44034676    -0.06100
N58         N  0.07219375  0.14520504  0.42510558    -0.58600
N59         N  0.10265662  0.07742567  0.49073573    -0.04200
N60         N  0.14029475  0.09283851  0.00579233    -0.59900
N61         N  0.11104785  0.06823337  0.46666730    -0.06200
N62         N  0.15330481  0.07570375  0.46519008    -0.58900
N63         N  0.05114321  0.11749262  0.46439788    -0.03900
N64         N  0.05375483  0.15697784  0.46564466    -0.60000
Mn65       Mn  0.03603811  0.07358811  0.99898705     1.18400
C66         C  0.06664832  0.17398941  0.44124778     0.98300
C67         C  0.17129473  0.09083636  0.98947138     0.99000
N68         N  0.38422153  0.44629284  0.46313128    -0.06200
N69         N  0.34289018  0.44116262  0.46386155    -0.62500
N70         N  0.44293040  0.39504218  0.46658071    -0.05000
N71         N  0.43918955  0.35501528  0.46565800    -0.63200
N72         N  0.43206484  0.40293167  0.49032149    -0.05700
N73         N  0.41954841  0.36743278  0.00574059    -0.62700
N74         N  0.39255672  0.43598285  0.43932738    -0.04600
N75         N  0.35570109  0.42218545  0.42378437    -0.63400
Mn76       Mn  0.42984391  0.46517973  0.49819048     1.10700
C77         C  0.32513293  0.42625024  0.43944841     0.99500
C78         C  0.42475677  0.33810928  0.48997884     0.99600
N79         N  0.06666278  0.48562729  0.42750726    -0.05700
N80         N  0.10358787  0.48192769  0.42676684    -0.61100
N81         N  0.47900450  0.48305501  0.39563076    -0.05000
N82         N  0.46466327  0.46886417  0.37086551    -0.57800
N83         N  0.01843386  0.02389912  0.39565044    -0.06300
N84         N  0.03117791  0.03750140  0.37085193    -0.60600
N85         N  0.02761691  0.44473596  0.42759735    -0.05300
N86         N  0.03706150  0.41205601  0.42683957    -0.57800
Mn87       Mn  0.06471865  0.04812361  0.43217123     1.20200
Mn88       Mn  0.45930344  0.43888598  0.43192394     1.10100
Cl89       Cl  0.49746841  0.00644752  0.46530715    -0.85800
C90         C  0.08444950  0.43592038  0.42595310     0.96600
C91         C  0.99702851  0.00330346  0.35527060     0.96300
N92         N  0.47673601  0.48211020  0.28455070    -0.05900
N93         N  0.46333426  0.46831670  0.30926464    -0.58100
N94         N  0.47817190  0.06839042  0.25407943    -0.05600
N95         N  0.47347152  0.10408345  0.25612933    -0.60200
N96         N  0.43687995  0.02963177  0.25408350    -0.05200
N97         N  0.40312998  0.03789388  0.25601574    -0.58000
N98         N  0.01813277  0.02100968  0.28477837    -0.04900
N99         N  0.03300224  0.03378337  0.30959322    -0.60500
C100        C  0.49895392  0.50041443  0.32500458     0.96200
C101        C  0.42657049  0.08428127  0.25790422     0.96000
N102        N  0.07440172  0.10586798  0.19159841    -0.06100
N103        N  0.09534222  0.14430930  0.17771217    -0.58600
N104        N  0.10425001  0.06277151  0.24129577    -0.04200
N105        N  0.14113215  0.07610351  0.25657785    -0.59900
N106        N  0.11167662  0.05210039  0.21735260    -0.06200
N107        N  0.15291887  0.05690382  0.21627383    -0.58900
N108        N  0.06557436  0.11449691  0.21574024    -0.03900
N109        N  0.07978297  0.15820352  0.21859352    -0.60000
Mn110      Mn  0.04221490  0.06694431  0.24917059     1.18400
C111        C  0.09800611  0.17638468  0.19498607     0.98300
C112        C  0.17104551  0.07167387  0.24070120     0.99000
N113        N  0.38256526  0.44676626  0.21483400    -0.06200
N114        N  0.34020734  0.43891775  0.21762733    -0.62500
N115        N  0.43271628  0.38857093  0.21487096    -0.05000
N116        N  0.42464666  0.34675120  0.21287919    -0.63200
N117        N  0.42543832  0.39738583  0.23931498    -0.05700
N118        N  0.41124665  0.36090049  0.25422797    -0.62700
N119        N  0.38925352  0.43755265  0.19035565    -0.04600
N120        N  0.35050780  0.42213312  0.17628088    -0.63400
Mn121      Mn  0.43018373  0.46302647  0.24848679     1.10700
C122        C  0.32062161  0.42390172  0.19366229     0.99500
C123        C  0.41157640  0.32994708  0.23731998     0.99600
N124        N  0.05744664  0.47022004  0.17596387    -0.05700
N125        N  0.08969571  0.45976424  0.17379422    -0.61100
N126        N  0.47748644  0.48301494  0.14566241    -0.05000
N127        N  0.46242096  0.47218309  0.12072422    -0.57800
N128        N  0.01973678  0.02111114  0.14621551    -0.06300
N129        N  0.03321057  0.03633876  0.12170913    -0.60600
N130        N  0.01536159  0.43256221  0.17511876    -0.05300
N131        N  0.01793033  0.39569372  0.17238100    -0.57800
Mn132      Mn  0.06627671  0.03819998  0.18244973     1.20200
Mn133      Mn  0.45260199  0.43533724  0.18107533     1.10100
Cl134      Cl  0.49777175  0.00103834  0.21516820    -0.85800
C135        C  0.06440061  0.41326173  0.17093899     0.96600
C136        C  0.99702161  0.00601946  0.10566332     0.96300
C137        C  0.15369537  0.33787853  0.40572029     0.30200
C138        C  0.15169138  0.34443122  0.45925276     0.30200
C139        C  0.13670855  0.36903231  0.41727176    -0.06000
C140        C  0.12349828  0.29234437  0.42013241    -0.06800
C141        C  0.20225453  0.36070763  0.41929234    -0.06700
C142        C  0.13592721  0.37241162  0.44463146    -0.06000
C143        C  0.12260056  0.29634870  0.44711706    -0.06800
C144        C  0.20027675  0.36348282  0.44666841    -0.06700
C145        C  0.12081901  0.40172456  0.45082963    -0.32100
N146        N  0.11097724  0.41483485  0.42810109     0.14400
C147        C  0.12180286  0.39647874  0.40758486    -0.32100
H148        H  0.11779462  0.40204823  0.38714981     0.16400
C149        C  0.09979667  0.25304757  0.45712489    -0.31000
N150        N  0.08744949  0.22220197  0.43697864     0.13200
C151        C  0.10188864  0.24563526  0.41405734    -0.31000
C152        C  0.24520540  0.38963743  0.45583316    -0.31300
N153        N  0.27527459  0.40130267  0.43541798     0.13700
H154        H  0.25552610  0.40024155  0.47614719     0.16300
C155        C  0.24975526  0.38524326  0.41273915    -0.31300
H156        H  0.26463004  0.39294203  0.39320376     0.16300
H157        H  0.09908735  0.23026138  0.39477577     0.16300
H158        H  0.11619044  0.41199066  0.47028015     0.16400
H159        H  0.09526159  0.24475946  0.47784594     0.16300
C160        C  0.15451094  0.33551199  0.15708209     0.30200
C161        C  0.14666886  0.34202096  0.21003835     0.30200
C162        C  0.11953002  0.34816140  0.16654886    -0.06000
C163        C  0.14178620  0.29192983  0.17237614    -0.06800
C164        C  0.20038828  0.37237887  0.17140147    -0.06700
C165        C  0.11553936  0.35128500  0.19345117    -0.06000
C166        C  0.13832387  0.29600877  0.19940422    -0.06800
C167        C  0.19606495  0.37609553  0.19878084    -0.06700
C168        C  0.09394781  0.37527736  0.19806344    -0.32100
N169        N  0.08384553  0.38573862  0.17453617     0.14400
C170        C  0.09998415  0.37019475  0.15512178    -0.32100
H171        H  0.10059854  0.37738828  0.13440732     0.16400
C172        C  0.12748920  0.25526666  0.21016518    -0.31000
N173        N  0.12080305  0.22498027  0.19054673     0.13200
C174        C  0.13133833  0.24738781  0.16728947    -0.31000
C175        C  0.24031571  0.39445031  0.20919203    -0.31300
N176        N  0.27132048  0.40363475  0.18951658     0.13700
H177        H  0.24891558  0.39721631  0.22990524     0.16300
C178        C  0.24719490  0.38812959  0.16660827    -0.31300
H179        H  0.26199240  0.38562295  0.14811768     0.16300
H180        H  0.12976265  0.23197669  0.14824168     0.16300
H181        H  0.08905245  0.38715092  0.21703524     0.16400
H182        H  0.12326834  0.24750032  0.23090754     0.16300
C183        C  0.10212945  0.30415649  0.27972355    -0.11700
C184        C  0.13804243  0.34112688  0.29399476     0.10900
C185        C  0.17031201  0.38260154  0.28151576    -0.03500
C186        C  0.16944801  0.38306451  0.25401358    -0.06200
C187        C  0.13763749  0.34337076  0.23922501    -0.17000
C188        C  0.09870672  0.30601408  0.25255858     0.01900
C189        C  0.13942667  0.33569898  0.32222870     0.11900
C190        C  0.20554415  0.42556014  0.29713994     0.62500
H191        H  0.19418108  0.41434417  0.24396478     0.11900
C192        C  0.05225991  0.26799587  0.24050797     0.54600
H193        H  0.07589813  0.27366830  0.29005260     0.07700
C194        C  0.10519820  0.33399505  0.33899736    -0.06100
C195        C  0.10804634  0.32716917  0.36556138    -0.06900
C196        C  0.14780568  0.33011299  0.37622209    -0.16400
C197        C  0.17630493  0.32230233  0.35897628    -0.02000
C198        C  0.17293092  0.32755186  0.33195980    -0.09600
C199        C  0.06683174  0.34080397  0.32937552     0.64700
H200        H  0.08003574  0.32197857  0.37847907     0.10100
C201        C  0.20526732  0.30254268  0.36678818     0.63100
H202        H  0.19557590  0.32387985  0.31822464     0.07500
F203        F  0.01635269  0.27010292  0.25228818    -0.20000
F204        F  0.04499551  0.22522715  0.24561149    -0.16200
F205        F  0.04870870  0.27113980  0.21374551    -0.19700
F206        F  0.23720255  0.41824227  0.30944094    -0.23100
F207        F  0.18266274  0.43596150  0.31604281    -0.24500
F208        F  0.23030058  0.46341417  0.28114132    -0.18500
F209        F  0.19143219  0.26325047  0.35165792    -0.21000
F210        F  0.19971126  0.28982611  0.39281246    -0.22200
F211        F  0.25210073  0.33403261  0.36184513    -0.19400
F212        F  0.04536426  0.34917976  0.35016603    -0.19400
F213        F  0.03295404  0.30181144  0.31588245    -0.23300
F214        F  0.08535782  0.37819008  0.31292862    -0.24900
C215        C  0.12225271  0.34496744  0.03256769    -0.11700
C216        C  0.15671645  0.33982892  0.04374939     0.10900
C217        C  0.18360096  0.32857967  0.02793519    -0.03500
C218        C  0.18040656  0.33068554  0.50074093    -0.06200
C219        C  0.15025505  0.34216627  0.48908037    -0.17000
C220        C  0.11481256  0.34052196  0.00535955     0.01900
C221        C  0.15824097  0.33889150  0.07229879     0.11900
C222        C  0.21332462  0.31214224  0.03965014     0.62500
H223        H  0.20025248  0.32129676  0.48831417     0.11900
C224        C  0.06572486  0.32625876  0.49677475     0.54600
H225        H  0.09791887  0.34759889  0.04544000     0.07700
C226        C  0.18991725  0.37822375  0.08719903    -0.06100
C227        C  0.18885005  0.37435264  0.11450565    -0.06900
C228        C  0.15500409  0.33358597  0.12730836    -0.16400
C229        C  0.11815616  0.29705119  0.11177880    -0.02000
C230        C  0.12344079  0.29895806  0.08446639    -0.09600
C231        C  0.22168879  0.42479940  0.07448867     0.64700
H232        H  0.21216765  0.40500828  0.12595911     0.10100
C233        C  0.07066849  0.25746358  0.12135248     0.63100
H234        H  0.09756480  0.27037743  0.07222626     0.07500
F235        F  0.05844104  0.36151418  0.50233693    -0.20000
F236        F  0.03350549  0.28820804  0.51102900    -0.16200
F237        F  0.05625678  0.31361002  0.47054134    -0.19700
F238        F  0.18503526  0.27264179  0.05383597    -0.23100
F239        F  0.24708637  0.34554224  0.05628811    -0.24500
F240        F  0.23582093  0.30192129  0.02035341    -0.18500
F241        F  0.03557116  0.25617870  0.10680160    -0.21000
F242        F  0.06094954  0.26088509  0.14739149    -0.22200
F243        F  0.06775641  0.21611127  0.11716860    -0.19400
F244        F  0.25124472  0.45832051  0.09268715    -0.19400
F245        F  0.19442563  0.43880384  0.06315544    -0.23300
F246        F  0.24915849  0.42198991  0.05517094    -0.24900
C247        C  0.31990471  0.13148873  0.34791423    -0.11700
C248        C  0.35134601  0.17373704  0.35990320     0.10900
C249        C  0.38128087  0.21275512  0.34504224    -0.03500
C250        C  0.37661965  0.20826622  0.31780497    -0.06200
C251        C  0.34175247  0.16710603  0.30518781    -0.17000
C252        C  0.31578585  0.12634578  0.32061288     0.01900
C253        C  0.35191910  0.17549936  0.38834179     0.11900
C254        C  0.41830357  0.25853913  0.35778175     0.62500
H255        H  0.40287460  0.23646589  0.30638064     0.11900
C256        C  0.28486206  0.07631944  0.31089427     0.54600
H257        H  0.29895160  0.10176464  0.36025478     0.07700
C258        C  0.31863303  0.18010310  0.40232525    -0.06100
C259        C  0.32024587  0.18005011  0.42958269    -0.06900
C260        C  0.35155525  0.17218931  0.44301029    -0.16400
C261        C  0.39065443  0.17740341  0.42871331    -0.02000
C262        C  0.38731075  0.17416988  0.40130576    -0.09600
C263        C  0.28129788  0.18431694  0.38858220     0.64700
H264        H  0.29726987  0.18717629  0.44054822     0.10100
C265        C  0.43862064  0.19218593  0.43977177     0.63100
H266        H  0.41427711  0.17370578  0.38980023     0.07500
F267        F  0.23859549  0.06062162  0.31647659    -0.20000
F268        F  0.29667663  0.04921631  0.32425861    -0.16200
F269        F  0.28886036  0.06908759  0.28450643    -0.19700
F270        F  0.45215642  0.25401139  0.36967282    -0.23100
F271        F  0.39810213  0.27228144  0.37656958    -0.24500
F272        F  0.44022867  0.29319527  0.33948616    -0.18500
F273        F  0.44749564  0.15776767  0.43508622    -0.21000
F274        F  0.44406326  0.20342413  0.46626605    -0.22200
F275        F  0.47249888  0.23123170  0.42685321    -0.19400
F276        F  0.25441141  0.19156934  0.40634135    -0.19400
F277        F  0.25160579  0.14418805  0.37447103    -0.23300
F278        F  0.30195262  0.22089927  0.37152599    -0.24900
C279        C  0.31073910  0.12616937  0.09579179    -0.11700
C280        C  0.34267080  0.16587023  0.10976486     0.10900
C281        C  0.37250933  0.20761118  0.09705033    -0.03500
C282        C  0.36927335  0.20786277  0.06987076    -0.06200
C283        C  0.33576059  0.16884625  0.05520913    -0.17000
C284        C  0.30682540  0.12594244  0.06851122     0.01500
C285        C  0.34261926  0.16303742  0.13808602     0.11900
C286        C  0.40825912  0.25155451  0.11191611     0.62500
H287        H  0.39617279  0.23797603  0.06019114     0.11900
C288        C  0.27311152  0.07783837  0.05656031     0.54600
H289        H  0.28897335  0.09452939  0.10652122     0.07700
C290        C  0.30899790  0.16563261  0.15308638    -0.06100
C291        C  0.31285261  0.16630327  0.18024218    -0.06900
C292        C  0.34766648  0.16241834  0.19263640    -0.16400
C293        C  0.38646875  0.16988587  0.17720001    -0.02000
C294        C  0.38017143  0.16399712  0.14998861    -0.09600
C295        C  0.26988538  0.16845503  0.14051800     0.64700
H296        H  0.28915504  0.17134978  0.19203835     0.10100
C297        C  0.43686804  0.19209415  0.18670795     0.63100
H298        H  0.40739998  0.16551673  0.13770811     0.07500
F299        F  0.22797754  0.06304609  0.06448534    -0.20000
F300        F  0.28440918  0.04755059  0.06609005    -0.16200
F301        F  0.27337828  0.07406497  0.02955670    -0.19700
F302        F  0.44334223  0.24686390  0.12177215    -0.23100
F303        F  0.38695001  0.26046440  0.13250639    -0.24500
F304        F  0.42890553  0.28953389  0.09580046    -0.18500
F305        F  0.45109464  0.16130742  0.18383811    -0.21000
F306        F  0.44389458  0.20827572  0.21239246    -0.22200
F307        F  0.46579351  0.22989545  0.17137150    -0.19400
F308        F  0.24303151  0.17400270  0.15916443    -0.19400
F309        F  0.24048101  0.12838077  0.12628935    -0.23300
F310        F  0.28856858  0.20551141  0.12381814    -0.24900
C311        C  0.33877323  0.17237273  0.52569493     0.30200
C312        C  0.34619423  0.16876060  0.97255289     0.30200
C313        C  0.35943129  0.14466183  0.51480286    -0.06000
C314        C  0.29251931  0.15283400  0.51065344    -0.06800
C315        C  0.36983354  0.21990707  0.51231711    -0.06700
C316        C  0.36115970  0.14097584  0.98769747    -0.06000
C317        C  0.29629149  0.14906237  0.98362026    -0.06800
C318        C  0.37396183  0.21659539  0.98528534    -0.06700
C319        C  0.37781973  0.11283026  0.98223728    -0.32100
N320        N  0.38861197  0.10175763  0.00537773     0.14400
C321        C  0.37777764  0.12101876  0.52541695    -0.32100
H322        H  0.38341161  0.11845940  0.54610252     0.16400
C323        C  0.25153391  0.12390964  0.97384272    -0.31000
N324        N  0.22088492  0.11537948  0.49364499     0.13200
C325        C  0.24538254  0.13324101  0.51642274    -0.31000
C326        C  0.39609045  0.25963694  0.97508974    -0.31300
N327        N  0.40408938  0.29007167  0.49470966     0.13700
H328        H  0.40285871  0.26784877  0.95439981     0.16300
C329        C  0.38639049  0.26644124  0.51739012    -0.31300
H330        H  0.38364280  0.28179276  0.53559555     0.16300
H331        H  0.23006810  0.13016922  0.53568204     0.16300
H332        H  0.38300033  0.10216420  0.96300560     0.16400
H333        H  0.24167245  0.11201852  0.95363426     0.16300
C334        C  0.34105971  0.16687724  0.77549404     0.30200
C335        C  0.34538021  0.16077830  0.72225394     0.30200
C336        C  0.36853735  0.14591840  0.76460069    -0.06000
C337        C  0.29305959  0.13894751  0.76140518    -0.06800
C338        C  0.36377860  0.21342668  0.76085771    -0.06700
C339        C  0.36912280  0.14110888  0.73747116    -0.06000
C340        C  0.29597393  0.13405366  0.73438221    -0.06800
C341        C  0.36626653  0.20913644  0.73383462    -0.06700
C342        C  0.38960540  0.11639724  0.73203619    -0.32100
N343        N  0.40425124  0.10917788  0.75508406     0.14400
C344        C  0.39138932  0.12660417  0.77516206    -0.32100
H345        H  0.39667162  0.12378632  0.79586801     0.16400
C346        C  0.25129364  0.10571891  0.72501305    -0.31000
N347        N  0.22071902  0.09608139  0.74493940     0.13200
C348        C  0.24560121  0.11647464  0.76743711    -0.31000
C349        C  0.38435203  0.25137123  0.72300732    -0.31300
N350        N  0.39225663  0.28217632  0.74243066     0.13700
H351        H  0.39014318  0.25893109  0.70220555     0.16300
C352        C  0.37868827  0.25958445  0.76567511    -0.31300
H353        H  0.37863679  0.27544112  0.78431703     0.16300
H354        H  0.23047981  0.11537979  0.78649389     0.16300
H355        H  0.39253495  0.10343569  0.71300951     0.16400
H356        H  0.24139469  0.09402829  0.70478654     0.16300
N357        N  0.47618714  0.48778430  0.53470557    -0.05900
N358        N  0.46368323  0.47271587  0.55929075    -0.58100
N359        N  0.46887301  0.06866565  0.00420442    -0.05600
N360        N  0.46080035  0.10212163  0.00667144    -0.60200
N361        N  0.42929466  0.02832699  0.00361696    -0.05200
N362        N  0.39322504  0.03322935  0.00561108    -0.58000
N363        N  0.01617091  0.02819333  0.53506979    -0.04900
N364        N  0.03099171  0.04070286  0.55996146    -0.60500
C365        C  0.49839107  0.50553117  0.57520138     0.96200
C366        C  0.41359950  0.07935871  0.00807244     0.96000
N367        N  0.06118057  0.10984843  0.94034642    -0.06100
N368        N  0.07219348  0.14520497  0.92510518    -0.58600
N369        N  0.10265671  0.07742594  0.99073535    -0.04200
N370        N  0.14029455  0.09283808  0.50579277    -0.59900
N371        N  0.11104796  0.06823378  0.96666689    -0.06200
N372        N  0.15330501  0.07570435  0.96518959    -0.58900
N373        N  0.05114296  0.11749261  0.96439752    -0.03900
N374        N  0.05375435  0.15697775  0.96564420    -0.60000
Mn375      Mn  0.03603827  0.07358818  0.49898736     1.18400
C376        C  0.06664787  0.17398930  0.94124730     0.98300
C377        C  0.17129451  0.09083579  0.48947188     0.99000
N378        N  0.38422150  0.44629275  0.96313082    -0.06200
N379        N  0.34289014  0.44116250  0.96386107    -0.62500
N380        N  0.44293021  0.39504198  0.96658038    -0.05000
N381        N  0.43918921  0.35501500  0.96565772    -0.63200
N382        N  0.43206466  0.40293153  0.99032115    -0.05700
N383        N  0.41954856  0.36743283  0.50574087    -0.62700
N384        N  0.39255666  0.43598262  0.93932695    -0.04600
N385        N  0.35570096  0.42218505  0.92378396    -0.63400
Mn386      Mn  0.42984376  0.46517955  0.99819006     1.10700
C387        C  0.32513282  0.42624999  0.93944795     0.99500
C388        C  0.42475652  0.33810913  0.98997860     0.99600
N389        N  0.06666258  0.48562725  0.92750692    -0.05700
N390        N  0.10358777  0.48192783  0.92676640    -0.61100
N391        N  0.47900453  0.48305484  0.89563056    -0.05000
N392        N  0.46466330  0.46886388  0.87086534    -0.57800
N393        N  0.01843375  0.02389902  0.89565017    -0.06300
N394        N  0.03117785  0.03750123  0.87085166    -0.60600
N395        N  0.02761681  0.44473586  0.92759712    -0.05300
N396        N  0.03706158  0.41205601  0.92683943    -0.57800
Mn397      Mn  0.06471857  0.04812372  0.93217092     1.20200
Mn398      Mn  0.45930344  0.43888585  0.93192364     1.10100
Cl399      Cl  0.49746823  0.00644740  0.96530684    -0.85800
C400        C  0.08444958  0.43592057  0.92595286     0.96600
C401        C  0.99702854  0.00330321  0.85527036     0.96300
N402        N  0.47673626  0.48211006  0.78455059    -0.05900
N403        N  0.46333444  0.46831644  0.80926450    -0.58100
N404        N  0.47817267  0.06839072  0.75407936    -0.05600
N405        N  0.47347250  0.10408390  0.75612925    -0.60200
N406        N  0.43688065  0.02963219  0.75408336    -0.05200
N407        N  0.40313079  0.03789452  0.75601551    -0.58000
N408        N  0.01813316  0.02100954  0.78477825    -0.04900
N409        N  0.03300257  0.03378307  0.80959312    -0.60500
C410        C  0.49895415  0.50041398  0.82500445     0.96200
C411        C  0.42657150  0.08428191  0.75790407     0.96000
N412        N  0.07440260  0.10586830  0.69159862    -0.06100
N413        N  0.09534310  0.14430957  0.67771236    -0.58600
N414        N  0.10425061  0.06277148  0.74129578    -0.04200
N415        N  0.14113274  0.07610338  0.75657783    -0.59900
N416        N  0.11167721  0.05210046  0.71735258    -0.06200
N417        N  0.15291943  0.05690385  0.71627377    -0.58900
N418        N  0.06557551  0.11449731  0.71574047    -0.03900
N419        N  0.07978433  0.15820398  0.71859380    -0.60000
Mn420      Mn  0.04221563  0.06694445  0.74917059     1.18400
C421        C  0.09800735  0.17638504  0.69498632     0.98300
C422        C  0.17104610  0.07167378  0.74070116     0.99000
N423        N  0.38256551  0.44676651  0.71483392    -0.06200
N424        N  0.34020745  0.43891765  0.71762725    -0.62500
N425        N  0.43271649  0.38857104  0.71487098    -0.05000
N426        N  0.42464704  0.34675137  0.71287925    -0.63200
N427        N  0.42543843  0.39738592  0.73931499    -0.05700
N428        N  0.41124688  0.36090064  0.75422801    -0.62700
N429        N  0.38925379  0.43755285  0.69035559    -0.04600
N430        N  0.35050801  0.42213299  0.67628082    -0.63400
Mn431      Mn  0.43018403  0.46302668  0.74848671     1.10700
C432        C  0.32062171  0.42390141  0.69366223     0.99500
C433        C  0.41157670  0.32994726  0.73732004     0.99600
N434        N  0.05744702  0.47022024  0.67596390    -0.05700
N435        N  0.08969602  0.45976438  0.67379412    -0.61100
N436        N  0.47748674  0.48301543  0.64566266    -0.05000
N437        N  0.46242103  0.47218379  0.62072452    -0.57800
N438        N  0.01973724  0.02111162  0.64621572    -0.06300
N439        N  0.03321096  0.03633934  0.62170938    -0.60600
N440        N  0.01536193  0.43256245  0.67511875    -0.05300
N441        N  0.01793063  0.39569396  0.67238086    -0.57800
Mn442      Mn  0.06627724  0.03820023  0.68244983     1.20200
Mn443      Mn  0.45260228  0.43533747  0.68107541     1.10100
Cl444      Cl  0.49777223  0.00103834  0.71516826    -0.85800
C445        C  0.06440090  0.41326188  0.67093874     0.96600
C446        C  0.99702190  0.00602012  0.60566358     0.96300
C447        C  0.15369511  0.33787862  0.90571984     0.30200
C448        C  0.15169134  0.34443120  0.95925235     0.30200
C449        C  0.13670854  0.36903252  0.91727139    -0.06000
C450        C  0.12349790  0.29234445  0.92013196    -0.06800
C451        C  0.20225433  0.36070755  0.91929186    -0.06700
C452        C  0.13592735  0.37241181  0.94463110    -0.06000
C453        C  0.12260034  0.29634871  0.94711662    -0.06800
C454        C  0.20027660  0.36348252  0.94666794    -0.06700
C455        C  0.12081935  0.40172490  0.95082932    -0.32100
N456        N  0.11097755  0.41483528  0.92810081     0.14400
C457        C  0.12180295  0.39647907  0.90758455    -0.32100
H458        H  0.11779464  0.40204862  0.88714953     0.16400
C459        C  0.09979645  0.25304752  0.95712442    -0.31000
N460        N  0.08744910  0.22220194  0.93697814     0.13200
C461        C  0.10188822  0.24563534  0.91405687    -0.31000
C462        C  0.24520526  0.38963696  0.95583277    -0.31300
N463        N  0.27527445  0.40130238  0.93541754     0.13700
H464        H  0.25552589  0.40024090  0.97614673     0.16300
C465        C  0.24975510  0.38524332  0.91273869    -0.31300
H466        H  0.26462988  0.39294243  0.89320332     0.16300
H467        H  0.09908694  0.23026158  0.89477523     0.16300
H468        H  0.11619096  0.41199106  0.97027985     0.16400
H469        H  0.09526149  0.24475937  0.97784545     0.16300
C470        C  0.15451099  0.33551177  0.65708210     0.30200
C471        C  0.14666898  0.34202101  0.71003823     0.30200
C472        C  0.11953013  0.34816130  0.66654876    -0.06000
C473        C  0.14178626  0.29192972  0.67237619    -0.06800
C474        C  0.20038840  0.37237871  0.67140142    -0.06700
C475        C  0.11553955  0.35128509  0.69345103    -0.06000
C476        C  0.13832406  0.29600879  0.69940423    -0.06800
C477        C  0.19606510  0.37609552  0.69878076    -0.06700
C478        C  0.09394808  0.37527755  0.69806321    -0.32100
N479        N  0.08384575  0.38573869  0.67453594     0.14400
C480        C  0.09998427  0.37019462  0.65512160    -0.32100
H481        H  0.10059868  0.37738800  0.63440711     0.16400
C482        C  0.12749011  0.25526697  0.71016530    -0.31000
N483        N  0.12080410  0.22498056  0.69054689     0.13200
C484        C  0.13133883  0.24738784  0.66728957    -0.31000
C485        C  0.24031585  0.39445026  0.70919195    -0.31300
N486        N  0.27132061  0.40363459  0.68951651     0.13700
H487        H  0.24891571  0.39721633  0.72990517     0.16300
C488        C  0.24719504  0.38812938  0.66660819    -0.31300
H489        H  0.26199250  0.38562264  0.64811767     0.16300
H490        H  0.12976318  0.23197667  0.64824181     0.16300
H491        H  0.08905275  0.38715125  0.71703503     0.16400
H492        H  0.12326969  0.24750085  0.73090766     0.16300
C493        C  0.10212885  0.30415635  0.77972310    -0.11700
C494        C  0.13804170  0.34112675  0.79399436     0.10900
C495        C  0.17031153  0.38260143  0.78151546    -0.03500
C496        C  0.16944780  0.38306448  0.75401331    -0.06200
C497        C  0.13763729  0.34337078  0.73922474    -0.17000
C498        C  0.09870639  0.30601397  0.75255815     0.01900
C499        C  0.13942588  0.33569879  0.82222824     0.11900
C500        C  0.20554367  0.42555996  0.79713973     0.62500
H501        H  0.19418104  0.41434410  0.74396457     0.11900
C502        C  0.05225996  0.26799533  0.74050735     0.54600
H503        H  0.07589745  0.27366810  0.79005210     0.07700
C504        C  0.10519776  0.33399542  0.83899691    -0.06100
C505        C  0.10804603  0.32716964  0.86556092    -0.06900
C506        C  0.14780517  0.33011303  0.87622163    -0.16400
C507        C  0.17630423  0.32230219  0.85897575    -0.02000
C508        C  0.17292996  0.32755146  0.83195929    -0.09600
C509        C  0.06683180  0.34080508  0.82937504     0.64700
H510        H  0.08003546  0.32197935  0.87847869     0.10100
C511        C  0.20526693  0.30254288  0.86678756     0.63100
H512        H  0.19557479  0.32387931  0.81822408     0.07500
F513        F  0.01635209  0.27010109  0.75228768    -0.20000
F514        F  0.04499647  0.22522687  0.74561047    -0.16200
F515        F  0.04870874  0.27113969  0.71374495    -0.19700
F516        F  0.23720195  0.41824206  0.80944084    -0.23100
F517        F  0.18266220  0.43596136  0.81604252    -0.24500
F518        F  0.23030031  0.46341403  0.78114120    -0.18500
F519        F  0.19143221  0.26325087  0.85165722    -0.21000
F520        F  0.19971094  0.28982627  0.89281180    -0.22200
F521        F  0.25210024  0.33403299  0.86184446    -0.19400
F522        F  0.04536468  0.34918133  0.85016556    -0.19400
F523        F  0.03295374  0.30181276  0.81588197    -0.23300
F524        F  0.08535834  0.37819127  0.81292815    -0.24900
C525        C  0.12225233  0.34496703  0.53256802    -0.11700
C526        C  0.15671632  0.33982888  0.54374972     0.10900
C527        C  0.18360104  0.32857983  0.52793559    -0.03500
C528        C  0.18040644  0.33068530  0.00074049    -0.06200
C529        C  0.15025514  0.34216635  0.98907997    -0.17000
C530        C  0.11481222  0.34052156  0.50535989     0.01900
C531        C  0.15824079  0.33889136  0.57229904     0.11900
C532        C  0.21332458  0.31214228  0.53965058     0.62500
H533        H  0.20025209  0.32129630  0.98831372     0.11900
C534        C  0.06572527  0.32625943  0.99677450     0.54600
H535        H  0.09791835  0.34759829  0.54544033     0.07700
C536        C  0.18991712  0.37822356  0.58719929    -0.06100
C537        C  0.18884996  0.37435228  0.61450584    -0.06900
C538        C  0.15500405  0.33358557  0.62730848    -0.16400
C539        C  0.11815601  0.29705080  0.61177895    -0.02000
C540        C  0.12344059  0.29895789  0.58446657    -0.09600
C541        C  0.22168875  0.42479932  0.57448906     0.64700
H542        H  0.21216755  0.40500790  0.62595932     0.10100
C543        C  0.07066842  0.25746307  0.62135268     0.63100
H544        H  0.09756453  0.27037731  0.57222637     0.07500
F545        F  0.05844192  0.36151514  0.00233648    -0.20000
F546        F  0.03350568  0.28820908  0.01102890    -0.16200
F547        F  0.05625694  0.31361049  0.97054115    -0.19700
F548        F  0.18503505  0.27264168  0.55383629    -0.23100
F549        F  0.24708618  0.34554215  0.55628866    -0.24500
F550        F  0.23582114  0.30192152  0.52035391    -0.18500
F551        F  0.03557088  0.25617791  0.60680187    -0.21000
F552        F  0.06094947  0.26088467  0.64739167    -0.22200
F553        F  0.06775657  0.21611085  0.61716890    -0.19400
F554        F  0.25124516  0.45832008  0.59268761    -0.19400
F555        F  0.19442566  0.43880413  0.56315618    -0.23300
F556        F  0.24915801  0.42198980  0.55517107    -0.24900
C557        C  0.31990464  0.13148872  0.84791414    -0.11700
C558        C  0.35134584  0.17373702  0.85990317     0.10900
C559        C  0.38128072  0.21275519  0.84504227    -0.03500
C560        C  0.37661985  0.20826631  0.81780501    -0.06200
C561        C  0.34175295  0.16710614  0.80518778    -0.17000
C562        C  0.31578622  0.12634581  0.82061279     0.01900
C563        C  0.35191907  0.17549926  0.88834173     0.11900
C564        C  0.41830298  0.25853930  0.85778188     0.62500
H565        H  0.40287496  0.23646617  0.80638070     0.11900
C566        C  0.28486279  0.07631946  0.81089407     0.54600
H567        H  0.29895146  0.10176459  0.86025463     0.07700
C568        C  0.31863348  0.18010361  0.90232526    -0.06100
C569        C  0.32024671  0.18005102  0.92958268    -0.06900
C570        C  0.35155561  0.17218943  0.94301019    -0.16400
C571        C  0.39065438  0.17740269  0.92871315    -0.02000
C572        C  0.38731054  0.17416937  0.90130561    -0.09600
C573        C  0.28129811  0.18431716  0.88858229     0.64700
H574        H  0.29727102  0.18717760  0.94054830     0.10100
C575        C  0.43862038  0.19218422  0.93977156     0.63100
H576        H  0.41427671  0.17370498  0.88979998     0.07500
F577        F  0.23859598  0.06062153  0.81647575    -0.20000
F578        F  0.29667697  0.04921629  0.82425872    -0.16200
F579        F  0.28886213  0.06908786  0.78450634    -0.19700
F580        F  0.45215594  0.25401196  0.86967314    -0.23100
F581        F  0.39810101  0.27228131  0.87656953    -0.24500
F582        F  0.44022808  0.29319557  0.83948638    -0.18500
F583        F  0.44749434  0.15776519  0.93508615    -0.21000
F584        F  0.44406330  0.20342290  0.96626577    -0.22200
F585        F  0.47249922  0.23122948  0.92685289    -0.19400
F586        F  0.25441261  0.19157088  0.90634146    -0.19400
F587        F  0.25160536  0.14418764  0.87447177    -0.23300
F588        F  0.30195239  0.22089856  0.87152547    -0.24900
C589        C  0.31073950  0.12616986  0.59579209    -0.11700
C590        C  0.34267075  0.16587106  0.60976507     0.10900
C591        C  0.37250880  0.20761203  0.59705047    -0.03500
C592        C  0.36927309  0.20786319  0.56987087    -0.06200
C593        C  0.33576064  0.16884638  0.55520931    -0.17000
C594        C  0.30682577  0.12594260  0.56851151     0.01500
C595        C  0.34261949  0.16303837  0.63808620     0.11900
C596        C  0.40825768  0.25155584  0.61191623     0.62500
H597        H  0.39617255  0.23797634  0.56019123     0.11900
C598        C  0.27311226  0.07783831  0.55656072     0.54600
H599        H  0.28897409  0.09452991  0.60652162     0.07700
C600        C  0.30899779  0.16563279  0.65308666    -0.06100
C601        C  0.31285274  0.16630354  0.68024244    -0.06900
C602        C  0.34766692  0.16241891  0.69263650    -0.16400
C603        C  0.38646926  0.16988686  0.67720004    -0.02000
C604        C  0.38017192  0.16399838  0.64998866    -0.09600
C605        C  0.26988462  0.16845429  0.64051845     0.64700
H606        H  0.28915510  0.17134975  0.69203870     0.10100
C607        C  0.43686863  0.19209535  0.68670789     0.63100
H608        H  0.40740060  0.16551840  0.63770810     0.07500
F609        F  0.22797815  0.06304533  0.56448588    -0.20000
F610        F  0.28441077  0.04755111  0.56609036    -0.16200
F611        F  0.27337868  0.07406486  0.52955712    -0.19700
F612        F  0.44334089  0.24686616  0.62177307    -0.23100
F613        F  0.38694736  0.26046565  0.63250589    -0.24500
F614        F  0.42890435  0.28953487  0.59580034    -0.18500
F615        F  0.45109542  0.16130875  0.68383804    -0.21000
F616        F  0.44389514  0.20827698  0.71239238    -0.22200
F617        F  0.46579398  0.22989668  0.67137142    -0.19400
F618        F  0.24303049  0.17400122  0.65916507    -0.19400
F619        F  0.24048072  0.12837998  0.62628971    -0.23300
F620        F  0.28856709  0.20551068  0.62381865    -0.24900
C621        C  0.33877307  0.67237262  0.02569476     0.30200
C622        C  0.34619381  0.66876054  0.47255305     0.30200
C623        C  0.35943108  0.64466158  0.01480282    -0.06000
C624        C  0.29251924  0.65283410  0.01065316    -0.06800
C625        C  0.36983365  0.71990692  0.01231699    -0.06700
C626        C  0.36115961  0.64097603  0.48769762    -0.06000
C627        C  0.29629110  0.64906211  0.48362054    -0.06800
C628        C  0.37396125  0.71659536  0.48528545    -0.06700
C629        C  0.37781995  0.61283074  0.48223738    -0.32100
N630        N  0.38861233  0.60175817  0.50537781     0.14400
C631        C  0.37777723  0.62101842  0.02541702    -0.32100
H632        H  0.38341117  0.61845916  0.04610262     0.16400
C633        C  0.25153347  0.62390914  0.47384308    -0.31000
N634        N  0.22088496  0.61537982  0.99364451     0.13200
C635        C  0.24538245  0.63324132  0.01642229    -0.31000
C636        C  0.39609003  0.75963690  0.47508984    -0.31300
N637        N  0.40408915  0.79007143  0.99470946     0.13700
H638        H  0.40285832  0.76784869  0.45439989     0.16300
C639        C  0.38639020  0.76644100  0.01738991    -0.31300
H640        H  0.38364214  0.78179245  0.03559534     0.16300
H641        H  0.23006778  0.63016961  0.03568157     0.16300
H642        H  0.38300073  0.60216493  0.46300564     0.16400
H643        H  0.24167195  0.61201785  0.45363472     0.16300
C644        C  0.34105908  0.66687698  0.27549402     0.30200
C645        C  0.34537970  0.66077793  0.22225389     0.30200
C646        C  0.36853622  0.64591757  0.26460073    -0.06000
C647        C  0.29305898  0.63894768  0.26140511    -0.06800
C648        C  0.36377844  0.71342643  0.26085762    -0.06700
C649        C  0.36912173  0.64110800  0.23747120    -0.06000
C650        C  0.29597334  0.63405381  0.23438213    -0.06800
C651        C  0.36626652  0.70913618  0.23383453    -0.06700
C652        C  0.38960442  0.61639644  0.23203627    -0.32100
N653        N  0.40425029  0.60917719  0.25508417     0.14400
C654        C  0.39138818  0.62660337  0.27516214    -0.32100
H655        H  0.39667066  0.62378574  0.29586810     0.16400
C656        C  0.25129303  0.60571912  0.22501300    -0.31000
N657        N  0.22071845  0.59608162  0.24493937     0.13200
C658        C  0.24560063  0.61647482  0.26743705    -0.31000
C659        C  0.38435205  0.75137103  0.22300723    -0.31300
N660        N  0.39225641  0.78217608  0.24243057     0.13700
H661        H  0.39014323  0.75893094  0.20220548     0.16300
C662        C  0.37868794  0.75958414  0.26567499    -0.31300
H663        H  0.37863628  0.77544074  0.28431693     0.16300
H664        H  0.23047915  0.61537966  0.28649390     0.16300
H665        H  0.39253426  0.60343508  0.21300960     0.16400
H666        H  0.24139405  0.59402828  0.20478650     0.16300
N667        N  0.47618689  0.98778396  0.03470521    -0.05900
N668        N  0.46368306  0.97271539  0.05929039    -0.58100
N669        N  0.46887320  0.56866593  0.50420473    -0.05600
N670        N  0.46080063  0.60212200  0.50667156    -0.60200
N671        N  0.42929483  0.52832729  0.50361733    -0.05200
N672        N  0.39322526  0.53322977  0.50561135    -0.58000
N673        N  0.01617069  0.52819320  0.03506949    -0.04900
N674        N  0.03099153  0.54070259  0.05996118    -0.60500
C675        C  0.49839095  0.00553063  0.07520103     0.96200
C676        C  0.41359981  0.57935917  0.50807252     0.96000
N677        N  0.06118064  0.60984825  0.44034672    -0.06100
N678        N  0.07219394  0.64520493  0.42510555    -0.58600
N679        N  0.10265659  0.57742568  0.49073569    -0.04200
N680        N  0.14029455  0.59283837  0.00579233    -0.59900
N681        N  0.11104779  0.56823337  0.46666724    -0.06200
N682        N  0.15330465  0.57570351  0.46519004    -0.58900
N683        N  0.05114307  0.61749247  0.46439783    -0.03900
N684        N  0.05375478  0.65697772  0.46564458    -0.60000
Mn685      Mn  0.03603805  0.57358813  0.99898697     1.18400
C686        C  0.06664856  0.67398937  0.44124772     0.98300
C687        C  0.17129457  0.59083633  0.98947136     0.99000
N688        N  0.38422157  0.94629293  0.46313121    -0.06200
N689        N  0.34289023  0.94116273  0.46386152    -0.62500
N690        N  0.44293033  0.89504215  0.46658066    -0.05000
N691        N  0.43918917  0.85501512  0.46565791    -0.63200
N692        N  0.43206491  0.90293173  0.49032145    -0.05700
N693        N  0.41954827  0.86743266  0.00574052    -0.62700
N694        N  0.39255669  0.93598286  0.43932733    -0.04600
N695        N  0.35570105  0.92218549  0.42378433    -0.63400
Mn696      Mn  0.42984399  0.96517979  0.49819039     1.10700
C697        C  0.32513295  0.92625035  0.43944838     0.99500
C698        C  0.42475652  0.83810921  0.48997878     0.99600
N699        N  0.06666284  0.98562736  0.42750725    -0.05700
N700        N  0.10358793  0.98192775  0.42676684    -0.61100
N701        N  0.47900455  0.98305502  0.39563074    -0.05000
N702        N  0.46466330  0.96886423  0.37086551    -0.57800
N703        N  0.01843378  0.52389902  0.39565042    -0.06300
N704        N  0.03117785  0.53750133  0.37085192    -0.60600
N705        N  0.02761697  0.94473603  0.42759733    -0.05300
N706        N  0.03706153  0.91205607  0.42683957    -0.57800
Mn707      Mn  0.06471849  0.54812354  0.43217123     1.20200
Mn708      Mn  0.45930340  0.93888590  0.43192389     1.10100
Cl709      Cl  0.49746843  0.50644757  0.46530728    -0.85800
C710        C  0.08444953  0.93592045  0.42595313     0.96600
C711        C  0.99702845  0.50330344  0.35527058     0.96300
N712        N  0.47673609  0.98211026  0.28455066    -0.05900
N713        N  0.46333437  0.96831667  0.30926459    -0.58100
N714        N  0.47817199  0.56839044  0.25407943    -0.05600
N715        N  0.47347176  0.60408354  0.25612932    -0.60200
N716        N  0.43688000  0.52963183  0.25408353    -0.05200
N717        N  0.40313011  0.53789406  0.25601574    -0.58000
N718        N  0.01813278  0.52100974  0.28477836    -0.04900
N719        N  0.03300228  0.53378338  0.30959322    -0.60500
C720        C  0.49895403  0.00041437  0.32500455     0.96200
C721        C  0.42657072  0.58428144  0.25790422     0.96000
N722        N  0.07440172  0.60586800  0.19159838    -0.06100
N723        N  0.09534220  0.64430931  0.17771212    -0.58600
N724        N  0.10425005  0.56277158  0.24129576    -0.04200
N725        N  0.14113218  0.57610352  0.25657785    -0.59900
N726        N  0.11167666  0.55210047  0.21735259    -0.06200
N727        N  0.15291889  0.55690383  0.21627384    -0.58900
N728        N  0.06557438  0.61449691  0.21574020    -0.03900
N729        N  0.07978300  0.65820354  0.21859348    -0.60000
Mn730      Mn  0.04221493  0.56694436  0.24917056     1.18400
C731        C  0.09800612  0.67638467  0.19498603     0.98300
C732        C  0.17104552  0.57167381  0.24070121     0.99000
N733        N  0.38256538  0.94676633  0.21483396    -0.06200
N734        N  0.34020742  0.93891775  0.21762729    -0.62500
N735        N  0.43271637  0.88857090  0.21487092    -0.05000
N736        N  0.42464683  0.84675119  0.21287918    -0.63200
N737        N  0.42543839  0.89738581  0.23931493    -0.05700
N738        N  0.41124670  0.86090048  0.25422794    -0.62700
N739        N  0.38925365  0.93755272  0.19035562    -0.04600
N740        N  0.35050795  0.92213312  0.17628085    -0.63400
Mn741      Mn  0.43018383  0.96302651  0.24848670     1.10700
C742        C  0.32062172  0.92390164  0.19366226     0.99500
C743        C  0.41157646  0.82994705  0.23731996     0.99600
N744        N  0.05744651  0.97021989  0.17596396    -0.05700
N745        N  0.08969554  0.95976406  0.17379425    -0.61100
N746        N  0.47748656  0.98301495  0.14566240    -0.05000
N747        N  0.46242100  0.97218310  0.12072423    -0.57800
N748        N  0.01973683  0.52111120  0.14621551    -0.06300
N749        N  0.03321063  0.53633886  0.12170914    -0.60600
N750        N  0.01536143  0.93256205  0.17511885    -0.05300
N751        N  0.01793014  0.89569355  0.17238112    -0.57800
Mn752      Mn  0.06627677  0.53820007  0.18244970     1.20200
Mn753      Mn  0.45260210  0.93533727  0.18107531     1.10100
Cl754      Cl  0.49777163  0.50103810  0.21516833    -0.85800
C755        C  0.06440042  0.91326155  0.17093901     0.96600
C756        C  0.99702166  0.50601957  0.10566332     0.96300
C757        C  0.15369533  0.83787859  0.40572025     0.30200
C758        C  0.15169136  0.84443122  0.45925271     0.30200
C759        C  0.13670838  0.86903224  0.41727173    -0.06000
C760        C  0.12349829  0.79234440  0.42013237    -0.06800
C761        C  0.20225455  0.86070778  0.41929228    -0.06700
C762        C  0.13592706  0.87241154  0.44463144    -0.06000
C763        C  0.12260061  0.79634869  0.44711703    -0.06800
C764        C  0.20027674  0.86348290  0.44666835    -0.06700
C765        C  0.12081905  0.90172462  0.45082964    -0.32100
N766        N  0.11097725  0.91483492  0.42810110     0.14400
C767        C  0.12180271  0.89647872  0.40758485    -0.32100
H768        H  0.11779445  0.90204826  0.38714983     0.16400
C769        C  0.09979693  0.75304754  0.45712485    -0.31000
N770        N  0.08744978  0.72220195  0.43697859     0.13200
C771        C  0.10188870  0.74563528  0.41405728    -0.31000
C772        C  0.24520539  0.88963748  0.45583315    -0.31300
N773        N  0.27527462  0.90130279  0.43541797     0.13700
H774        H  0.25552605  0.90024152  0.47614717     0.16300
C775        C  0.24975533  0.88524349  0.41273912    -0.31300
H776        H  0.26463017  0.89294232  0.39320375     0.16300
H777        H  0.09908733  0.73026146  0.39477571     0.16300
H778        H  0.11619071  0.91199087  0.47028016     0.16400
H779        H  0.09526195  0.74475939  0.47784590     0.16300
C780        C  0.15451099  0.83551206  0.15708204     0.30200
C781        C  0.14666895  0.84202096  0.21003832     0.30200
C782        C  0.11953010  0.84816151  0.16654882    -0.06000
C783        C  0.14178615  0.79192986  0.17237610    -0.06800
C784        C  0.20038837  0.87237883  0.17140143    -0.06700
C785        C  0.11553948  0.85128509  0.19345114    -0.06000
C786        C  0.13832380  0.79600874  0.19940418    -0.06800
C787        C  0.19606508  0.87609540  0.19878079    -0.06700
C788        C  0.09394781  0.87527733  0.19806339    -0.32100
N789        N  0.08384537  0.88573847  0.17453615     0.14400
C790        C  0.09998402  0.87019469  0.15512172    -0.32100
H791        H  0.10059829  0.87738818  0.13440730     0.16400
C792        C  0.12748898  0.75526658  0.21016510    -0.31000
N793        N  0.12080294  0.72498026  0.19054668     0.13200
C794        C  0.13133820  0.74738782  0.16728942    -0.31000
C795        C  0.24031589  0.89445029  0.20919199    -0.31300
N796        N  0.27132063  0.90363481  0.18951648     0.13700
H797        H  0.24891580  0.89721629  0.22990511     0.16300
C798        C  0.24719504  0.88812965  0.16660816    -0.31300
H799        H  0.26199249  0.88562305  0.14811759     0.16300
H800        H  0.12976253  0.73197674  0.14824161     0.16300
H801        H  0.08905240  0.88715089  0.21703523     0.16400
H802        H  0.12326806  0.74750018  0.23090752     0.16300
C803        C  0.10212965  0.80415635  0.27972348    -0.11700
C804        C  0.13804260  0.84112671  0.29399469     0.10900
C805        C  0.17031223  0.88260139  0.28151573    -0.03500
C806        C  0.16944825  0.88306444  0.25401355    -0.06200
C807        C  0.13763763  0.84337074  0.23922498    -0.17000
C808        C  0.09870683  0.80601409  0.25255855     0.01900
C809        C  0.13942669  0.83569875  0.32222861     0.11900
C810        C  0.20554440  0.92555990  0.29713993     0.62500
H811        H  0.19418136  0.91434410  0.24396476     0.11900
C812        C  0.05225994  0.76799595  0.24050797     0.54600
H813        H  0.07589839  0.77366812  0.29005249     0.07700
C814        C  0.10519820  0.83399485  0.33899720    -0.06100
C815        C  0.10804641  0.82716925  0.36556125    -0.06900
C816        C  0.14780567  0.83011304  0.37622204    -0.16400
C817        C  0.17630481  0.82230216  0.35897627    -0.02000
C818        C  0.17293084  0.82755158  0.33195977    -0.09600
C819        C  0.06683172  0.84080361  0.32937525     0.64700
H820        H  0.08003576  0.82197874  0.37847893     0.10100
C821        C  0.20526725  0.80254261  0.36678823     0.63100
H822        H  0.19557585  0.82387954  0.31822464     0.07500
F823        F  0.01635277  0.77010298  0.25228832    -0.20000
F824        F  0.04499554  0.72522721  0.24561134    -0.16200
F825        F  0.04870870  0.77113993  0.21374552    -0.19700
F826        F  0.23720274  0.91824198  0.30944092    -0.23100
F827        F  0.18266307  0.93596125  0.31604284    -0.24500
F828        F  0.23030077  0.96341394  0.28114133    -0.18500
F829        F  0.19143214  0.76325035  0.35165805    -0.21000
F830        F  0.19971127  0.78982616  0.39281251    -0.22200
F831        F  0.25210064  0.83403243  0.36184512    -0.19400
F832        F  0.04536429  0.84917945  0.35016572    -0.19400
F833        F  0.03295405  0.80181092  0.31588226    -0.23300
F834        F  0.08535771  0.87818976  0.31292838    -0.24900
C835        C  0.12225306  0.84496751  0.03256770    -0.11700
C836        C  0.15671689  0.83982907  0.04374937     0.10900
C837        C  0.18360125  0.82857966  0.02793516    -0.03500
C838        C  0.18040650  0.83068530  0.50074077    -0.06200
C839        C  0.15025510  0.84216626  0.48908031    -0.17000
C840        C  0.11481264  0.84052181  0.00535960     0.01900
C841        C  0.15824146  0.83889168  0.07229875     0.11900
C842        C  0.21332514  0.81214252  0.03965014     0.62500
H843        H  0.20025229  0.82129651  0.48831398     0.11900
C844        C  0.06572516  0.82625914  0.49677499     0.54600
H845        H  0.09791933  0.84759915  0.04544007     0.07700
C846        C  0.18991744  0.87822402  0.08719902    -0.06100
C847        C  0.18885011  0.87435283  0.11450564    -0.06900
C848        C  0.15500424  0.83358610  0.12730832    -0.16400
C849        C  0.11815645  0.79705130  0.11177871    -0.02000
C850        C  0.12344126  0.79895827  0.08446632    -0.09600
C851        C  0.22168880  0.92479971  0.07448865     0.64700
H852        H  0.21216757  0.90500854  0.12595917     0.10100
C853        C  0.07066876  0.75746364  0.12135231     0.63100
H854        H  0.09756530  0.77037762  0.07222614     0.07500
F855        F  0.05844159  0.86151472  0.50233711    -0.20000
F856        F  0.03350583  0.78820870  0.51102941    -0.16200
F857        F  0.05625679  0.81361009  0.47054165    -0.19700
F858        F  0.18503607  0.77264223  0.05383618    -0.23100
F859        F  0.24708703  0.84554290  0.05628790    -0.24500
F860        F  0.23582128  0.80192137  0.02035340    -0.18500
F861        F  0.03557150  0.75617877  0.10680138    -0.21000
F862        F  0.06094962  0.76088514  0.14739129    -0.22200
F863        F  0.06775674  0.71611135  0.11716842    -0.19400
F864        F  0.25124482  0.95832067  0.09268716    -0.19400
F865        F  0.19442554  0.93880424  0.06315563    -0.23300
F866        F  0.24915837  0.92199034  0.05517078    -0.24900
C867        C  0.31990459  0.63148848  0.34791421    -0.11700
C868        C  0.35134588  0.67373679  0.35990320     0.10900
C869        C  0.38128073  0.71275489  0.34504224    -0.03500
C870        C  0.37661956  0.70826604  0.31780499    -0.06200
C871        C  0.34175239  0.66710593  0.30518780    -0.17000
C872        C  0.31578575  0.62634562  0.32061285     0.01900
C873        C  0.35191897  0.67549910  0.38834178     0.11900
C874        C  0.41830341  0.75853887  0.35778172     0.62500
H875        H  0.40287461  0.73646580  0.30638065     0.11900
C876        C  0.28486194  0.57631925  0.31089422     0.54600
H877        H  0.29895153  0.60176443  0.36025473     0.07700
C878        C  0.31863287  0.68010279  0.40232523    -0.06100
C879        C  0.32024572  0.68004990  0.42958268    -0.06900
C880        C  0.35155517  0.67218921  0.44301029    -0.16400
C881        C  0.39065430  0.67740319  0.42871331    -0.02000
C882        C  0.38731063  0.67416966  0.40130575    -0.09600
C883        C  0.28129763  0.68431649  0.38858216     0.64700
H884        H  0.29726975  0.68717607  0.44054818     0.10100
C885        C  0.43862044  0.69218564  0.43977181     0.63100
H886        H  0.41427701  0.67370558  0.38980023     0.07500
F887        F  0.23859536  0.56062137  0.31647658    -0.20000
F888        F  0.29667652  0.54921607  0.32425847    -0.16200
F889        F  0.28886022  0.56908740  0.28450639    -0.19700
F890        F  0.45215631  0.75401111  0.36967268    -0.23100
F891        F  0.39810200  0.77228116  0.37656959    -0.24500
F892        F  0.44022850  0.79319502  0.33948615    -0.18500
F893        F  0.44749549  0.65776740  0.43508625    -0.21000
F894        F  0.44406286  0.70342382  0.46626607    -0.22200
F895        F  0.47249877  0.73123148  0.42685335    -0.19400
F896        F  0.25441083  0.69156836  0.40634134    -0.19400
F897        F  0.25160594  0.64418781  0.37447070    -0.23300
F898        F  0.30195227  0.72089911  0.37152617    -0.24900
C899        C  0.31073908  0.62616934  0.09579181    -0.11700
C900        C  0.34267074  0.66587022  0.10976486     0.10900
C901        C  0.37250908  0.70761119  0.09705033    -0.03500
C902        C  0.36927302  0.70786276  0.06987075    -0.06200
C903        C  0.33576034  0.66884618  0.05520913    -0.17000
C904        C  0.30682525  0.62594237  0.06851124     0.01500
C905        C  0.34261924  0.66303740  0.13808604     0.11900
C906        C  0.40825874  0.75155451  0.11191616     0.62500
H907        H  0.39617231  0.73797604  0.06019112     0.11900
C908        C  0.27311133  0.57783831  0.05656036     0.54600
H909        H  0.28897339  0.59452937  0.10652127     0.07700
C910        C  0.30899778  0.66563237  0.15308641    -0.06100
C911        C  0.31285249  0.66630305  0.18024222    -0.06900
C912        C  0.34766652  0.66241835  0.19263641    -0.16400
C913        C  0.38646877  0.66988591  0.17720000    -0.02000
C914        C  0.38017135  0.66399700  0.14998862    -0.09600
C915        C  0.26988518  0.66845467  0.14051803     0.64700
H916        H  0.28915491  0.67134949  0.19203838     0.10100
C917        C  0.43686810  0.69209438  0.18670790     0.63100
H918        H  0.40739989  0.66551657  0.13770810     0.07500
F919        F  0.22797731  0.56304612  0.06448536    -0.20000
F920        F  0.28440907  0.54755060  0.06609018    -0.16200
F921        F  0.27337803  0.57406493  0.02955673    -0.19700
F922        F  0.44334174  0.74686393  0.12177236    -0.23100
F923        F  0.38694949  0.76046449  0.13250634    -0.24500
F924        F  0.42890541  0.78953377  0.09580045    -0.18500
F925        F  0.45109489  0.66130781  0.18383793    -0.21000
F926        F  0.44389463  0.70827577  0.21239246    -0.22200
F927        F  0.46579341  0.72989582  0.17137151    -0.19400
F928        F  0.24303134  0.67400242  0.15916444    -0.19400
F929        F  0.24048084  0.62838044  0.12628937    -0.23300
F930        F  0.28856832  0.70551093  0.12381812    -0.24900
C931        C  0.33877310  0.67237274  0.52569494     0.30200
C932        C  0.34619411  0.66876043  0.97255292     0.30200
C933        C  0.35943116  0.64466181  0.51480288    -0.06000
C934        C  0.29251914  0.65283399  0.51065346    -0.06800
C935        C  0.36983338  0.71990703  0.51231712    -0.06700
C936        C  0.36115970  0.64097583  0.98769757    -0.06000
C937        C  0.29629132  0.64906209  0.98362028    -0.06800
C938        C  0.37396170  0.71659525  0.98528533    -0.06700
C939        C  0.37781972  0.61283028  0.98223744    -0.32100
N940        N  0.38861185  0.60175757  0.00537786     0.14400
C941        C  0.37777761  0.62101888  0.52541696    -0.32100
H942        H  0.38341170  0.61845966  0.54610262     0.16400
C943        C  0.25153373  0.62390942  0.97384273    -0.31000
N944        N  0.22088477  0.61537925  0.49364496     0.13200
C945        C  0.24538232  0.63324088  0.51642274    -0.31000
C946        C  0.39609031  0.75963678  0.97508969    -0.31300
N947        N  0.40408929  0.79007162  0.49470964     0.13700
H948        H  0.40285864  0.76784857  0.95439978     0.16300
C949        C  0.38639044  0.76644123  0.51739011    -0.31300
H950        H  0.38364277  0.78179283  0.53559554     0.16300
H951        H  0.23006777  0.63016900  0.53568200     0.16300
H952        H  0.38300029  0.60216411  0.96300571     0.16400
H953        H  0.24167225  0.61201821  0.95363429     0.16300
C954        C  0.34105976  0.66687726  0.77549407     0.30200
C955        C  0.34538044  0.66077830  0.72225398     0.30200
C956        C  0.36853744  0.64591842  0.76460077    -0.06000
C957        C  0.29305966  0.63894752  0.76140517    -0.06800
C958        C  0.36377868  0.71342671  0.76085772    -0.06700
C959        C  0.36912301  0.64110891  0.73747124    -0.06000
C960        C  0.29597407  0.63405363  0.73438222    -0.06800
C961        C  0.36626678  0.70913648  0.73383464    -0.06700
C962        C  0.38960571  0.61639738  0.73203635    -0.32100
N963        N  0.40425162  0.60917814  0.75508420     0.14400
C964        C  0.39138947  0.62660428  0.77516222    -0.32100
H965        H  0.39667176  0.62378651  0.79586810     0.16400
C966        C  0.25129373  0.60571893  0.72501305    -0.31000
N967        N  0.22071909  0.59608134  0.74493941     0.13200
C968        C  0.24560126  0.61647465  0.76743712    -0.31000
C969        C  0.38435230  0.75137129  0.72300733    -0.31300
N970        N  0.39225672  0.78217636  0.74243065     0.13700
H971        H  0.39014359  0.75893119  0.70220559     0.16300
C972        C  0.37868831  0.75958451  0.76567511    -0.31300
H973        H  0.37863687  0.77544121  0.78431701     0.16300
H974        H  0.23047984  0.61537979  0.78649386     0.16300
H975        H  0.39253536  0.60343578  0.71300961     0.16400
H976        H  0.24139476  0.59402836  0.70478654     0.16300
N977        N  0.47618716  0.98778436  0.53470555    -0.05900
N978        N  0.46368324  0.97271597  0.55929074    -0.58100
N979        N  0.46887286  0.56866559  0.00420444    -0.05600
N980        N  0.46080021  0.60212157  0.00667145    -0.60200
N981        N  0.42929454  0.52832692  0.00361701    -0.05200
N982        N  0.39322491  0.53322927  0.00561122    -0.58000
N983        N  0.01617084  0.52819346  0.53506979    -0.04900
N984        N  0.03099168  0.54070298  0.55996147    -0.60500
C985        C  0.49839117  0.00553124  0.57520135     0.96200
C986        C  0.41359939  0.57935865  0.00807253     0.96000
N987        N  0.06118043  0.60984827  0.94034632    -0.06100
N988        N  0.07219338  0.64520479  0.92510510    -0.58600
N989        N  0.10265655  0.57742586  0.99073534    -0.04200
N990        N  0.14029447  0.59283791  0.50579273    -0.59900
N991        N  0.11104777  0.56823366  0.96666687    -0.06200
N992        N  0.15330483  0.57570435  0.96518955    -0.58900
N993        N  0.05114288  0.61749251  0.96439745    -0.03900
N994        N  0.05375427  0.65697760  0.96564412    -0.60000
Mn995      Mn  0.03603823  0.57358824  0.49898733     1.18400
C996        C  0.06664781  0.67398918  0.94124722     0.98300
C997        C  0.17129437  0.59083548  0.48947186     0.99000
N998        N  0.38422150  0.94629275  0.96313081    -0.06200
N999        N  0.34289019  0.94116260  0.96386106    -0.62500
N1000       N  0.44293010  0.89504185  0.96658033    -0.05000
N1001       N  0.43918911  0.85501488  0.96565765    -0.63200
N1002       N  0.43206454  0.90293144  0.99032108    -0.05700
N1003       N  0.41954858  0.86743288  0.50574084    -0.62700
N1004       N  0.39255660  0.93598250  0.93932696    -0.04600
N1005       N  0.35570094  0.92218504  0.92378396    -0.63400
Mn1006     Mn  0.42984375  0.96517955  0.99819004     1.10700
C1007       C  0.32513285  0.92625007  0.93944794     0.99500
C1008       C  0.42475633  0.83810899  0.98997852     0.99600
N1009       N  0.06666293  0.98562751  0.92750695    -0.05700
N1010       N  0.10358806  0.98192802  0.92676658    -0.61100
N1011       N  0.47900453  0.98305485  0.89563050    -0.05000
N1012       N  0.46466338  0.96886389  0.87086526    -0.57800
N1013       N  0.01843361  0.52389887  0.89565017    -0.06300
N1014       N  0.03117778  0.53750114  0.87085168    -0.60600
N1015       N  0.02761709  0.94473608  0.92759710    -0.05300
N1016       N  0.03706180  0.91205625  0.92683946    -0.57800
Mn1017     Mn  0.06471830  0.54812351  0.93217091     1.20200
Mn1018     Mn  0.45930338  0.93888571  0.93192360     1.10100
Cl1019     Cl  0.49746825  0.50644749  0.96530687    -0.85800
C1020       C  0.08444982  0.93592073  0.92595302     0.96600
C1021       C  0.99702852  0.50330312  0.85527036     0.96300
N1022       N  0.47673638  0.98211017  0.78455049    -0.05900
N1023       N  0.46333450  0.96831650  0.80926439    -0.58100
N1024       N  0.47817281  0.56839076  0.75407951    -0.05600
N1025       N  0.47347281  0.60408404  0.75612945    -0.60200
N1026       N  0.43688070  0.52963230  0.75408346    -0.05200
N1027       N  0.40313098  0.53789478  0.75601566    -0.58000
N1028       N  0.01813316  0.52100956  0.78477825    -0.04900
N1029       N  0.03300255  0.53378309  0.80959312    -0.60500
C1030       C  0.49895422  0.00041400  0.82500437     0.96200
C1031       C  0.42657180  0.58428216  0.75790427     0.96000
N1032       N  0.07440264  0.60586838  0.69159862    -0.06100
N1033       N  0.09534314  0.64430965  0.67771236    -0.58600
N1034       N  0.10425069  0.56277157  0.74129579    -0.04200
N1035       N  0.14113282  0.57610345  0.75657783    -0.59900
N1036       N  0.11167728  0.55210055  0.71735258    -0.06200
N1037       N  0.15291951  0.55690392  0.71627376    -0.58900
N1038       N  0.06557555  0.61449739  0.71574047    -0.03900
N1039       N  0.07978437  0.65820405  0.71859380    -0.60000
Mn1040     Mn  0.04221569  0.56694451  0.74917060     1.18400
C1041       C  0.09800739  0.67638511  0.69498633     0.98300
C1042       C  0.17104618  0.57167382  0.74070115     0.99000
N1043       N  0.38256578  0.94676658  0.71483386    -0.06200
N1044       N  0.34020772  0.93891771  0.71762722    -0.62500
N1045       N  0.43271683  0.88857108  0.71487090    -0.05000
N1046       N  0.42464739  0.84675141  0.71287922    -0.63200
N1047       N  0.42543871  0.89738601  0.73931487    -0.05700
N1048       N  0.41124704  0.86090074  0.75422792    -0.62700
N1049       N  0.38925403  0.93755283  0.69035555    -0.04600
N1050       N  0.35050819  0.92213285  0.67628083    -0.63400
Mn1051     Mn  0.43018425  0.96302672  0.74848659     1.10700
C1052       C  0.32062193  0.92390138  0.69366222     0.99500
C1053       C  0.41157697  0.82994734  0.73732001     0.99600
N1054       N  0.05744694  0.97022012  0.67596392    -0.05700
N1055       N  0.08969591  0.95976423  0.67379412    -0.61100
N1056       N  0.47748696  0.98301545  0.64566260    -0.05000
N1057       N  0.46242128  0.97218377  0.62072446    -0.57800
N1058       N  0.01973722  0.52111168  0.64621569    -0.06300
N1059       N  0.03321085  0.53633944  0.62170934    -0.60600
N1060       N  0.01536182  0.93256232  0.67511876    -0.05300
N1061       N  0.01793049  0.89569382  0.67238085    -0.57800
Mn1062     Mn  0.06627731  0.53820033  0.68244981     1.20200
Mn1063     Mn  0.45260257  0.93533753  0.68107535     1.10100
Cl1064     Cl  0.49777213  0.50103831  0.71516831    -0.85800
C1065       C  0.06440077  0.91326174  0.67093872     0.96600
C1066       C  0.99702179  0.50602019  0.60566356     0.96300
C1067       C  0.15369507  0.83787855  0.90571984     0.30200
C1068       C  0.15169128  0.84443103  0.95925234     0.30200
C1069       C  0.13670847  0.86903244  0.91727140    -0.06000
C1070       C  0.12349785  0.79234431  0.92013192    -0.06800
C1071       C  0.20225431  0.86070755  0.91929186    -0.06700
C1072       C  0.13592724  0.87241165  0.94463112    -0.06000
C1073       C  0.12260030  0.79634855  0.94711658    -0.06800
C1074       C  0.20027657  0.86348250  0.94666794    -0.06700
C1075       C  0.12081940  0.90172484  0.95082938    -0.32100
N1076       N  0.11097767  0.91483535  0.92810091     0.14400
C1077       C  0.12180300  0.89647913  0.90758461    -0.32100
H1078       H  0.11779467  0.90204876  0.88714961     0.16400
C1079       C  0.09979638  0.75304737  0.95712437    -0.31000
N1080       N  0.08744902  0.72220177  0.93697809     0.13200
C1081       C  0.10188809  0.74563516  0.91405679    -0.31000
C1082       C  0.24520526  0.88963698  0.95583278    -0.31300
N1083       N  0.27527446  0.90130245  0.93541754     0.13700
H1084       H  0.25552591  0.90024085  0.97614673     0.16300
C1085       C  0.24975511  0.88524339  0.91273870    -0.31300
H1086       H  0.26462990  0.89294253  0.89320333     0.16300
H1087       H  0.09908668  0.73026134  0.89477522     0.16300
H1088       H  0.11619107  0.91199099  0.97027995     0.16400
H1089       H  0.09526143  0.74475922  0.97784541     0.16300
C1090       C  0.15451111  0.83551189  0.65708207     0.30200
C1091       C  0.14666917  0.84202114  0.71003821     0.30200
C1092       C  0.11953035  0.84816157  0.66654872    -0.06000
C1093       C  0.14178628  0.79192979  0.67237616    -0.06800
C1094       C  0.20038859  0.87237873  0.67140140    -0.06700
C1095       C  0.11553978  0.85128532  0.69345099    -0.06000
C1096       C  0.13832414  0.79600888  0.69940420    -0.06800
C1097       C  0.19606533  0.87609554  0.69878074    -0.06700
C1098       C  0.09394812  0.87527757  0.69806316    -0.32100
N1099       N  0.08384563  0.88573859  0.67453590     0.14400
C1100       C  0.09998428  0.87019469  0.65512150    -0.32100
H1101       H  0.10059850  0.87738800  0.63440710     0.16400
C1102       C  0.12749017  0.75526705  0.71016529    -0.31000
N1103       N  0.12080413  0.72498063  0.69054689     0.13200
C1104       C  0.13133885  0.74738792  0.66728958    -0.31000
C1105       C  0.24031610  0.89445030  0.70919192    -0.31300
N1106       N  0.27132084  0.90363459  0.68951648     0.13700
H1107       H  0.24891600  0.89721641  0.72990515     0.16300
C1108       C  0.24719519  0.88812929  0.66660819    -0.31300
H1109       H  0.26199262  0.88562249  0.64811762     0.16300
H1110       H  0.12976317  0.73197674  0.64824179     0.16300
H1111       H  0.08905275  0.88715126  0.71703498     0.16400
H1112       H  0.12326985  0.74750097  0.73090766     0.16300
C1113       C  0.10212924  0.80415629  0.77972310    -0.11700
C1114       C  0.13804214  0.84112667  0.79399434     0.10900
C1115       C  0.17031191  0.88260140  0.78151547    -0.03500
C1116       C  0.16944816  0.88306454  0.75401332    -0.06200
C1117       C  0.13763759  0.84337087  0.73922473    -0.17000
C1118       C  0.09870671  0.80601406  0.75255816     0.01900
C1119       C  0.13942618  0.83569869  0.82222823     0.11900
C1120       C  0.20554388  0.92555997  0.79713977     0.62500
H1121       H  0.19418133  0.91434419  0.74396457     0.11900
C1122       C  0.05226022  0.76799551  0.74050737     0.54600
H1123       H  0.07589792  0.77366806  0.79005206     0.07700
C1124       C  0.10519802  0.83399538  0.83899684    -0.06100
C1125       C  0.10804616  0.82716975  0.86556091    -0.06900
C1126       C  0.14780525  0.83011302  0.87622164    -0.16400
C1127       C  0.17630431  0.82230207  0.85897583    -0.02000
C1128       C  0.17293025  0.82755139  0.83195934    -0.09600
C1129       C  0.06683193  0.84080469  0.82937483     0.64700
H1130       H  0.08003568  0.82197955  0.87847858     0.10100
C1131       C  0.20526696  0.80254273  0.86678775     0.63100
H1132       H  0.19557512  0.82387928  0.81822419     0.07500
F1133       F  0.01635240  0.77010118  0.75228788    -0.20000
F1134       F  0.04499679  0.72522702  0.74561029    -0.16200
F1135       F  0.04870894  0.77114012  0.71374500    -0.19700
F1136       F  0.23720193  0.91824192  0.80944103    -0.23100
F1137       F  0.18266226  0.93596139  0.81604247    -0.24500
F1138       F  0.23030068  0.96341407  0.78114123    -0.18500
F1139       F  0.19143218  0.76325067  0.85165742    -0.21000
F1140       F  0.19971076  0.78982602  0.89281199    -0.22200
F1141       F  0.25210037  0.83403289  0.86184482    -0.19400
F1142       F  0.04536476  0.84918107  0.85016522    -0.19400
F1143       F  0.03295394  0.80181207  0.81588194    -0.23300
F1144       F  0.08535828  0.87819062  0.81292776    -0.24900
C1145       C  0.12225283  0.84496739  0.53256802    -0.11700
C1146       C  0.15671665  0.83982897  0.54374966     0.10900
C1147       C  0.18360112  0.82857973  0.52793544    -0.03500
C1148       C  0.18040649  0.83068508  0.00074046    -0.06200
C1149       C  0.15025511  0.84216607  0.98907997    -0.17000
C1150       C  0.11481251  0.84052178  0.50535993     0.01900
C1151       C  0.15824121  0.83889147  0.57229900     0.11900
C1152       C  0.21332506  0.81214266  0.53965039     0.62500
H1153       H  0.20025214  0.82129606  0.98831366     0.11900
C1154       C  0.06572534  0.82625939  0.99677461     0.54600
H1155       H  0.09791901  0.84759889  0.54544039     0.07700
C1156       C  0.18991744  0.87822370  0.58719927    -0.06100
C1157       C  0.18885021  0.87435236  0.61450582    -0.06900
C1158       C  0.15500425  0.83358570  0.62730846    -0.16400
C1159       C  0.11815636  0.79705087  0.61177892    -0.02000
C1160       C  0.12344113  0.79895792  0.58446654    -0.09600
C1161       C  0.22168905  0.92479949  0.57448906     0.64700
H1162       H  0.21216778  0.90500802  0.62595934     0.10100
C1163       C  0.07066867  0.75746321  0.62135259     0.63100
H1164       H  0.09756518  0.77037726  0.57222633     0.07500
F1165       F  0.05844203  0.86151517  0.00233662    -0.20000
F1166       F  0.03350573  0.78820916  0.01102908    -0.16200
F1167       F  0.05625703  0.81361030  0.97054126    -0.19700
F1168       F  0.18503597  0.77264233  0.55383634    -0.23100
F1169       F  0.24708687  0.84554290  0.55628823    -0.24500
F1170       F  0.23582128  0.80192161  0.52035367    -0.18500
F1171       F  0.03557137  0.75617832  0.60680168    -0.21000
F1172       F  0.06094956  0.76088473  0.64739158    -0.22200
F1173       F  0.06775663  0.71611091  0.61716872    -0.19400
F1174       F  0.25124557  0.95832018  0.59268761    -0.19400
F1175       F  0.19442605  0.93880454  0.56315635    -0.23300
F1176       F  0.24915806  0.92198994  0.55517091    -0.24900
C1177       C  0.31990463  0.63148837  0.84791411    -0.11700
C1178       C  0.35134573  0.67373666  0.85990317     0.10900
C1179       C  0.38128059  0.71275490  0.84504233    -0.03500
C1180       C  0.37661976  0.70826623  0.81780506    -0.06200
C1181       C  0.34175287  0.66710604  0.80518780    -0.17000
C1182       C  0.31578622  0.62634559  0.82061275     0.01900
C1183       C  0.35191883  0.67549872  0.88834174     0.11900
C1184       C  0.41830291  0.75853890  0.85778196     0.62500
H1185       H  0.40287473  0.73646604  0.80638083     0.11900
C1186       C  0.28486296  0.57631919  0.81089399     0.54600
H1187       H  0.29895156  0.60176422  0.86025456     0.07700
C1188       C  0.31863322  0.68010306  0.90232525    -0.06100
C1189       C  0.32024644  0.68005047  0.92958266    -0.06900
C1190       C  0.35155545  0.67218911  0.94301020    -0.16400
C1191       C  0.39065418  0.67740231  0.92871315    -0.02000
C1192       C  0.38731027  0.67416878  0.90130562    -0.09600
C1193       C  0.28129801  0.68431690  0.88858229     0.64700
H1194       H  0.29727076  0.68717712  0.94054827     0.10100
C1195       C  0.43862018  0.69218394  0.93977157     0.63100
H1196       H  0.41427645  0.67370434  0.88980001     0.07500
F1197       F  0.23859611  0.56062093  0.81647573    -0.20000
F1198       F  0.29667723  0.54921605  0.82425856    -0.16200
F1199       F  0.28886228  0.56908765  0.78450626    -0.19700
F1200       F  0.45215574  0.75401133  0.86967318    -0.23100
F1201       F  0.39810100  0.77228079  0.87656971    -0.24500
F1202       F  0.44022815  0.79319522  0.83948648    -0.18500
F1203       F  0.44749416  0.65776488  0.93508636    -0.21000
F1204       F  0.44406312  0.70342299  0.96626574    -0.22200
F1205       F  0.47249896  0.73122896  0.92685271    -0.19400
F1206       F  0.25441229  0.69157028  0.90634148    -0.19400
F1207       F  0.25160538  0.64418765  0.87447155    -0.23300
F1208       F  0.30195245  0.72089862  0.87152568    -0.24900
C1209       C  0.31073957  0.62616993  0.59579212    -0.11700
C1210       C  0.34267079  0.66587114  0.60976508     0.10900
C1211       C  0.37250875  0.70761210  0.59705048    -0.03500
C1212       C  0.36927312  0.70786328  0.56987086    -0.06200
C1213       C  0.33576063  0.66884641  0.55520932    -0.17000
C1214       C  0.30682577  0.62594266  0.56851155     0.01500
C1215       C  0.34261962  0.66303846  0.63808623     0.11900
C1216       C  0.40825729  0.75155595  0.61191630     0.62500
H1217       H  0.39617245  0.73797639  0.56019125     0.11900
C1218       C  0.27311214  0.57783835  0.55656082     0.54600
H1219       H  0.28897422  0.59453000  0.60652165     0.07700
C1220       C  0.30899802  0.66563294  0.65308674    -0.06100
C1221       C  0.31285301  0.66630361  0.68024252    -0.06900
C1222       C  0.34766720  0.66241892  0.69263653    -0.16400
C1223       C  0.38646950  0.66988688  0.67720002    -0.02000
C1224       C  0.38017209  0.66399845  0.64998863    -0.09600
C1225       C  0.26988472  0.66845433  0.64051861     0.64700
H1226       H  0.28915546  0.67134984  0.69203878     0.10100
C1227       C  0.43686887  0.69209522  0.68670784     0.63100
H1228       H  0.40740071  0.66551845  0.63770803     0.07500
F1229       F  0.22797806  0.56304545  0.56448606    -0.20000
F1230       F  0.28441075  0.54755120  0.56609050    -0.16200
F1231       F  0.27337844  0.57406489  0.52955720    -0.19700
F1232       F  0.44334035  0.74686633  0.62177346    -0.23100
F1233       F  0.38694651  0.76046572  0.63250573    -0.24500
F1234       F  0.42890411  0.78953493  0.59580038    -0.18500
F1235       F  0.45109555  0.66130853  0.68383786    -0.21000
F1236       F  0.44389533  0.70827670  0.71239236    -0.22200
F1237       F  0.46579426  0.72989666  0.67137144    -0.19400
F1238       F  0.24303044  0.67400096  0.65916525    -0.19400
F1239       F  0.24048100  0.62838001  0.62628986    -0.23300
F1240       F  0.28856690  0.70551076  0.62381884    -0.24900
C1241       C  0.83877314  0.17237253  0.02569476     0.30200
C1242       C  0.84619397  0.16876053  0.47255305     0.30200
C1243       C  0.85943114  0.14466148  0.01480275    -0.06000
C1244       C  0.79251928  0.15283399  0.01065318    -0.06800
C1245       C  0.86983370  0.21990683  0.01231700    -0.06700
C1246       C  0.86115991  0.14097611  0.48769760    -0.06000
C1247       C  0.79629122  0.14906200  0.48362054    -0.06800
C1248       C  0.87396133  0.21659536  0.48528544    -0.06700
C1249       C  0.87782028  0.11283084  0.48223739    -0.32100
N1250       N  0.88861255  0.10175818  0.50537782     0.14400
C1251       C  0.87777732  0.12101830  0.02541687    -0.32100
H1252       H  0.88341130  0.11845898  0.04610253     0.16400
C1253       C  0.75153356  0.12390909  0.47384308    -0.31000
N1254       N  0.72088498  0.11537977  0.99364453     0.13200
C1255       C  0.74538249  0.13324124  0.01642231    -0.31000
C1256       C  0.89609004  0.25963692  0.47508983    -0.31300
N1257       N  0.90408917  0.29007138  0.99470948     0.13700
H1258       H  0.90285839  0.26784875  0.45439991     0.16300
C1259       C  0.88639027  0.26644091  0.01738990    -0.31300
H1260       H  0.88364229  0.28179240  0.03559539     0.16300
H1261       H  0.73006784  0.13016952  0.03568160     0.16300
H1262       H  0.88300111  0.10216496  0.46300564     0.16400
H1263       H  0.74167199  0.11201786  0.45363472     0.16300
C1264       C  0.84105902  0.16687698  0.27549406     0.30200
C1265       C  0.84537960  0.16077786  0.22225394     0.30200
C1266       C  0.86853601  0.14591741  0.26460074    -0.06000
C1267       C  0.79305889  0.13894782  0.26140515    -0.06800
C1268       C  0.86377853  0.21342645  0.26085769    -0.06700
C1269       C  0.86912148  0.14110780  0.23747122    -0.06000
C1270       C  0.79597324  0.13405386  0.23438218    -0.06800
C1271       C  0.86626656  0.20913614  0.23383460    -0.06700
C1272       C  0.88960418  0.11639626  0.23203628    -0.32100
N1273       N  0.90425004  0.10917701  0.25508418     0.14400
C1274       C  0.89138798  0.12660323  0.27516215    -0.32100
H1275       H  0.89667048  0.12378567  0.29586811     0.16400
C1276       C  0.75129291  0.10571925  0.22501301    -0.31000
N1277       N  0.72071833  0.09608173  0.24493941     0.13200
C1278       C  0.74560052  0.11647501  0.26743711    -0.31000
C1279       C  0.88435208  0.25137095  0.22300727    -0.31300
N1280       N  0.89225650  0.28217607  0.24243059     0.13700
H1281       H  0.89014322  0.25893077  0.20220553     0.16300
C1282       C  0.87868807  0.25958422  0.26567503    -0.31300
H1283       H  0.87863649  0.27544092  0.28431693     0.16300
H1284       H  0.73047912  0.11537989  0.28649390     0.16300
H1285       H  0.89253402  0.10343488  0.21300961     0.16400
H1286       H  0.74139394  0.09402853  0.20478656     0.16300
N1287       N  0.97618699  0.48778401  0.03470523    -0.05900
N1288       N  0.96368316  0.47271543  0.05929040    -0.58100
N1289       N  0.96887330  0.06866583  0.50420473    -0.05600
N1290       N  0.96080079  0.10212191  0.50667158    -0.60200
N1291       N  0.92929491  0.02832721  0.50361729    -0.05200
N1292       N  0.89322537  0.03322973  0.50561135    -0.58000
N1293       N  0.51617061  0.02819313  0.03506946    -0.04900
N1294       N  0.53099149  0.04070251  0.05996114    -0.60500
C1295       C  0.99839100  0.50553068  0.07520106     0.96200
C1296       C  0.91359996  0.07935914  0.50807255     0.96000
N1297       N  0.56118073  0.10984827  0.44034674    -0.06100
N1298       N  0.57219390  0.14520490  0.42510556    -0.58600
N1299       N  0.60265666  0.07742566  0.49073574    -0.04200
N1300       N  0.64029465  0.09283847  0.00579232    -0.59900
N1301       N  0.61104787  0.06823337  0.46666729    -0.06200
N1302       N  0.65330481  0.07570373  0.46519006    -0.58900
N1303       N  0.55114318  0.11749250  0.46439786    -0.03900
N1304       N  0.55375477  0.15697768  0.46564458    -0.60000
Mn1305     Mn  0.53603805  0.07358811  0.99898697     1.18400
C1306       C  0.56664841  0.17398929  0.44124771     0.98300
C1307       C  0.67129461  0.09083630  0.98947138     0.99000
N1308       N  0.88422154  0.44629286  0.46313114    -0.06200
N1309       N  0.84289021  0.44116265  0.46386144    -0.62500
N1310       N  0.94293016  0.39504206  0.46658065    -0.05000
N1311       N  0.93918916  0.35501509  0.46565793    -0.63200
N1312       N  0.93206470  0.40293162  0.49032144    -0.05700
N1313       N  0.91954803  0.36743254  0.00574056    -0.62700
N1314       N  0.89255666  0.43598277  0.43932724    -0.04600
N1315       N  0.85570099  0.42218536  0.42378426    -0.63400
Mn1316     Mn  0.92984382  0.46517973  0.49819035     1.10700
C1317       C  0.82513286  0.42625021  0.43944833     0.99500
C1318       C  0.92475655  0.33810920  0.48997881     0.99600
N1319       N  0.56666276  0.48562732  0.42750725    -0.05700
N1320       N  0.60358783  0.48192771  0.42676684    -0.61100
N1321       N  0.97900452  0.48305494  0.39563073    -0.05000
N1322       N  0.96466319  0.46886420  0.37086550    -0.57800
N1323       N  0.51843384  0.02389910  0.39565041    -0.06300
N1324       N  0.53117794  0.03750137  0.37085192    -0.60600
N1325       N  0.52761688  0.44473598  0.42759733    -0.05300
N1326       N  0.53706146  0.41205602  0.42683957    -0.57800
Mn1327     Mn  0.56471856  0.04812355  0.43217124     1.20200
Mn1328     Mn  0.95930337  0.43888582  0.43192389     1.10100
Cl1329     Cl  0.99746849  0.00644753  0.46530714    -0.85800
C1330       C  0.58444947  0.43592040  0.42595311     0.96600
C1331       C  0.49702852  0.00330348  0.35527058     0.96300
N1332       N  0.97673608  0.48211019  0.28455066    -0.05900
N1333       N  0.96333442  0.46831657  0.30926459    -0.58100
N1334       N  0.97817183  0.06839035  0.25407942    -0.05600
N1335       N  0.97347152  0.10408342  0.25612933    -0.60200
N1336       N  0.93687989  0.02963173  0.25408350    -0.05200
N1337       N  0.90312993  0.03789390  0.25601574    -0.58000
N1338       N  0.51813284  0.02100976  0.28477835    -0.04900
N1339       N  0.53300234  0.03378337  0.30959321    -0.60500
C1340       C  0.99895405  0.50041429  0.32500456     0.96200
C1341       C  0.92657050  0.08428127  0.25790422     0.96000
N1342       N  0.57440188  0.10586816  0.19159843    -0.06100
N1343       N  0.59534238  0.14430946  0.17771218    -0.58600
N1344       N  0.60424997  0.06277164  0.24129577    -0.04200
N1345       N  0.64113202  0.07610351  0.25657787    -0.59900
N1346       N  0.61167659  0.05210055  0.21735259    -0.06200
N1347       N  0.65291879  0.05690390  0.21627385    -0.58900
N1348       N  0.56557447  0.11449709  0.21574024    -0.03900
N1349       N  0.57978297  0.15820368  0.21859349    -0.60000
Mn1350     Mn  0.54221500  0.06694450  0.24917059     1.18400
C1351       C  0.59800622  0.17638484  0.19498606     0.98300
C1352       C  0.67104542  0.07167388  0.24070123     0.99000
N1353       N  0.88256541  0.44676626  0.21483397    -0.06200
N1354       N  0.84020747  0.43891774  0.21762728    -0.62500
N1355       N  0.93271637  0.38857085  0.21487091    -0.05000
N1356       N  0.92464695  0.34675119  0.21287918    -0.63200
N1357       N  0.92543834  0.39738575  0.23931491    -0.05700
N1358       N  0.91124676  0.36090045  0.25422793    -0.62700
N1359       N  0.88925368  0.43755263  0.19035564    -0.04600
N1360       N  0.85050801  0.42213311  0.17628085    -0.63400
Mn1361     Mn  0.93018384  0.46302645  0.24848670     1.10700
C1362       C  0.82062182  0.42390174  0.19366223     0.99500
C1363       C  0.91157668  0.32994708  0.23731998     0.99600
N1364       N  0.55744647  0.47021988  0.17596396    -0.05700
N1365       N  0.58969548  0.45976403  0.17379425    -0.61100
N1366       N  0.97748643  0.48301494  0.14566241    -0.05000
N1367       N  0.96242087  0.47218315  0.12072423    -0.57800
N1368       N  0.51973695  0.02111119  0.14621550    -0.06300
N1369       N  0.53321076  0.03633884  0.12170913    -0.60600
N1370       N  0.51536138  0.43256207  0.17511884    -0.05300
N1371       N  0.51793006  0.39569357  0.17238112    -0.57800
Mn1372     Mn  0.56627681  0.03820010  0.18244973     1.20200
Mn1373     Mn  0.95260208  0.43533721  0.18107530     1.10100
Cl1374     Cl  0.99777170  0.00103808  0.21516831    -0.85800
C1375       C  0.56440033  0.41326153  0.17093900     0.96600
C1376       C  0.49702178  0.00601951  0.10566331     0.96300
C1377       C  0.65369526  0.33787849  0.40572025     0.30200
C1378       C  0.65169127  0.34443114  0.45925273     0.30200
C1379       C  0.63670834  0.36903218  0.41727174    -0.06000
C1380       C  0.62349828  0.29234431  0.42013237    -0.06800
C1381       C  0.70225441  0.36070763  0.41929230    -0.06700
C1382       C  0.63592700  0.37241147  0.44463145    -0.06000
C1383       C  0.62260057  0.29634861  0.44711703    -0.06800
C1384       C  0.70027663  0.36348284  0.44666836    -0.06700
C1385       C  0.62081889  0.40172449  0.45082965    -0.32100
N1386       N  0.61097721  0.41483488  0.42810110     0.14400
C1387       C  0.62180274  0.39647871  0.40758486    -0.32100
H1388       H  0.61779453  0.40204828  0.38714984     0.16400
C1389       C  0.59979669  0.25304744  0.45712484    -0.31000
N1390       N  0.58744955  0.22220186  0.43697858     0.13200
C1391       C  0.60188867  0.24563521  0.41405728    -0.31000
C1392       C  0.74520528  0.38963749  0.45583313    -0.31300
N1393       N  0.77527450  0.40130271  0.43541794     0.13700
H1394       H  0.75552596  0.40024159  0.47614715     0.16300
C1395       C  0.74975513  0.38524328  0.41273912    -0.31300
H1396       H  0.76462991  0.39294203  0.39320372     0.16300
H1397       H  0.59908737  0.23026138  0.39477571     0.16300
H1398       H  0.61619036  0.41199058  0.47028015     0.16400
H1399       H  0.59526159  0.24475930  0.47784589     0.16300
C1400       C  0.65451110  0.33551215  0.15708204     0.30200
C1401       C  0.64666904  0.34202116  0.21003832     0.30200
C1402       C  0.61953029  0.34816173  0.16654882    -0.06000
C1403       C  0.64178622  0.29192997  0.17237612    -0.06800
C1404       C  0.70038850  0.37237891  0.17140142    -0.06700
C1405       C  0.61553967  0.35128536  0.19345113    -0.06000
C1406       C  0.63832383  0.29600889  0.19940419    -0.06800
C1407       C  0.69606520  0.37609553  0.19878079    -0.06700
C1408       C  0.59394771  0.37527733  0.19806338    -0.32100
N1409       N  0.58384525  0.38573841  0.17453613     0.14400
C1410       C  0.59998401  0.37019470  0.15512172    -0.32100
H1411       H  0.60059820  0.37738807  0.13440727     0.16400
C1412       C  0.62748908  0.25526676  0.21016516    -0.31000
N1413       N  0.62080307  0.22498042  0.19054672     0.13200
C1414       C  0.63133831  0.24738793  0.16728945    -0.31000
C1415       C  0.74031599  0.39445030  0.20919199    -0.31300
N1416       N  0.77132071  0.40363477  0.18951648     0.13700
H1417       H  0.74891591  0.39721638  0.22990512     0.16300
C1418       C  0.74719513  0.38812963  0.16660815    -0.31300
H1419       H  0.76199257  0.38562310  0.14811756     0.16300
H1420       H  0.62976262  0.23197680  0.14824169     0.16300
H1421       H  0.58905224  0.38715086  0.21703521     0.16400
H1422       H  0.62326819  0.24750042  0.23090751     0.16300
C1423       C  0.60212960  0.30415655  0.27972346    -0.11700
C1424       C  0.63804271  0.34112682  0.29399467     0.10900
C1425       C  0.67031239  0.38260150  0.28151571    -0.03500
C1426       C  0.66944839  0.38306458  0.25401356    -0.06200
C1427       C  0.63763766  0.34337098  0.23922496    -0.17000
C1428       C  0.59870679  0.30601437  0.25255852     0.01900
C1429       C  0.63942681  0.33569887  0.32222859     0.11900
C1430       C  0.70554450  0.42556008  0.29713991     0.62500
H1431       H  0.69418159  0.41434425  0.24396478     0.11900
C1432       C  0.55225994  0.26799626  0.24050791     0.54600
H1433       H  0.57589828  0.27366835  0.29005245     0.07700
C1434       C  0.60519837  0.33399512  0.33899719    -0.06100
C1435       C  0.60804659  0.32716947  0.36556122    -0.06900
C1436       C  0.64780569  0.33011300  0.37622203    -0.16400
C1437       C  0.67630480  0.32230204  0.35897626    -0.02000
C1438       C  0.67293087  0.32755154  0.33195976    -0.09600
C1439       C  0.56683184  0.34080389  0.32937527     0.64700
H1440       H  0.58003586  0.32197896  0.37847891     0.10100
C1441       C  0.70526722  0.30254243  0.36678821     0.63100
H1442       H  0.69557582  0.32387941  0.31822463     0.07500
F1443       F  0.51635272  0.27010327  0.25228817    -0.20000
F1444       F  0.54499549  0.22522748  0.24561131    -0.16200
F1445       F  0.54870882  0.27114045  0.21374549    -0.19700
F1446       F  0.73720268  0.41824219  0.30944114    -0.23100
F1447       F  0.68266300  0.43596151  0.31604265    -0.24500
F1448       F  0.73030119  0.46341411  0.28114132    -0.18500
F1449       F  0.69143205  0.26325008  0.35165808    -0.21000
F1450       F  0.69971130  0.28982609  0.39281251    -0.22200
F1451       F  0.75210063  0.33403229  0.36184511    -0.19400
F1452       F  0.54536454  0.34918008  0.35016569    -0.19400
F1453       F  0.53295398  0.30181113  0.31588244    -0.23300
F1454       F  0.58535777  0.37818974  0.31292820    -0.24900
C1455       C  0.62225280  0.34496740  0.03256770    -0.11700
C1456       C  0.65671660  0.33982896  0.04374938     0.10900
C1457       C  0.68360107  0.32857969  0.02793515    -0.03500
C1458       C  0.68040661  0.33068550  0.50074080    -0.06200
C1459       C  0.65025504  0.34216624  0.48908032    -0.17000
C1460       C  0.61481249  0.34052179  0.00535959     0.01900
C1461       C  0.65824117  0.33889159  0.07229875     0.11900
C1462       C  0.71332495  0.31214252  0.03965006     0.62500
H1463       H  0.70025247  0.32129675  0.48831402     0.11900
C1464       C  0.56572491  0.32625883  0.49677489     0.54600
H1465       H  0.59791900  0.34759896  0.04544005     0.07700
C1466       C  0.68991729  0.37822394  0.08719897    -0.06100
C1467       C  0.68885010  0.37435274  0.11450558    -0.06900
C1468       C  0.65500428  0.33358607  0.12730833    -0.16400
C1469       C  0.61815637  0.29705122  0.11177877    -0.02000
C1470       C  0.62344102  0.29895819  0.08446638    -0.09600
C1471       C  0.72168866  0.42479964  0.07448859     0.64700
H1472       H  0.71216773  0.40500849  0.12595910     0.10100
C1473       C  0.57066864  0.25746360  0.12135242     0.63100
H1474       H  0.59756498  0.27037753  0.07222623     0.07500
F1475       F  0.55844117  0.36151429  0.50233709    -0.20000
F1476       F  0.53350546  0.28820827  0.51102921    -0.16200
F1477       F  0.55625679  0.31361001  0.47054151    -0.19700
F1478       F  0.68503582  0.27264216  0.05383601    -0.23100
F1479       F  0.74708680  0.34554283  0.05628789    -0.24500
F1480       F  0.73582103  0.30192138  0.02035327    -0.18500
F1481       F  0.53557128  0.25617873  0.10680157    -0.21000
F1482       F  0.56094964  0.26088513  0.14739139    -0.22200
F1483       F  0.56775648  0.21611125  0.11716859    -0.19400
F1484       F  0.75124482  0.45832057  0.09268712    -0.19400
F1485       F  0.69442536  0.43880419  0.06315566    -0.23300
F1486       F  0.74915810  0.42199026  0.05517062    -0.24900
C1487       C  0.81990448  0.13148860  0.34791422    -0.11700
C1488       C  0.85134594  0.17373684  0.35990322     0.10900
C1489       C  0.88128084  0.21275494  0.34504225    -0.03500
C1490       C  0.87661962  0.20826604  0.31780500    -0.06200
C1491       C  0.84175241  0.16710594  0.30518782    -0.17000
C1492       C  0.81578559  0.12634567  0.32061288     0.01900
C1493       C  0.85191901  0.17549911  0.38834181     0.11900
C1494       C  0.91830353  0.25853893  0.35778175     0.62500
H1495       H  0.90287469  0.23646581  0.30638063     0.11900
C1496       C  0.78486176  0.07631929  0.31089425     0.54600
H1497       H  0.79895130  0.10176448  0.36025474     0.07700
C1498       C  0.81863285  0.18010273  0.40232526    -0.06100
C1499       C  0.82024575  0.18004982  0.42958270    -0.06900
C1500       C  0.85155522  0.17218916  0.44301031    -0.16400
C1501       C  0.89065441  0.17740327  0.42871334    -0.02000
C1502       C  0.88731073  0.17416980  0.40130580    -0.09600
C1503       C  0.78129767  0.18431657  0.38858221     0.64700
H1504       H  0.79726975  0.18717604  0.44054822     0.10100
C1505       C  0.93862062  0.19218586  0.43977182     0.63100
H1506       H  0.91427723  0.17370582  0.38980028     0.07500
F1507       F  0.73859516  0.06062133  0.31647662    -0.20000
F1508       F  0.79667650  0.04921610  0.32425842    -0.16200
F1509       F  0.78885989  0.06908761  0.28450639    -0.19700
F1510       F  0.95215632  0.25401108  0.36967281    -0.23100
F1511       F  0.89810203  0.27228112  0.37656959    -0.24500
F1512       F  0.94022868  0.29319517  0.33948619    -0.18500
F1513       F  0.94749573  0.15776767  0.43508626    -0.21000
F1514       F  0.94406307  0.20342408  0.46626608    -0.22200
F1515       F  0.97249893  0.23123172  0.42685335    -0.19400
F1516       F  0.75441103  0.19156864  0.40634139    -0.19400
F1517       F  0.75160574  0.14418780  0.37447087    -0.23300
F1518       F  0.80195240  0.22089920  0.37152620    -0.24900
C1519       C  0.81073917  0.12616927  0.09579184    -0.11700
C1520       C  0.84267094  0.16587012  0.10976489     0.10900
C1521       C  0.87250934  0.20761106  0.09705035    -0.03500
C1522       C  0.86927328  0.20786267  0.06987076    -0.06200
C1523       C  0.83576048  0.16884610  0.05520915    -0.17000
C1524       C  0.80682533  0.12594229  0.06851127     0.01500
C1525       C  0.84261935  0.16303737  0.13808608     0.11900
C1526       C  0.90825880  0.25155444  0.11191619     0.62500
H1527       H  0.89617255  0.23797591  0.06019114     0.11900
C1528       C  0.77311133  0.07783820  0.05656037     0.54600
H1529       H  0.78897341  0.09452932  0.10652130     0.07700
C1530       C  0.80899796  0.16563255  0.15308641    -0.06100
C1531       C  0.81285253  0.16630307  0.18024224    -0.06900
C1532       C  0.84766647  0.16241828  0.19263647    -0.16400
C1533       C  0.88646874  0.16988581  0.17720008    -0.02000
C1534       C  0.88017138  0.16399690  0.14998870    -0.09600
C1535       C  0.76988539  0.16845483  0.14051798     0.64700
H1536       H  0.78915494  0.17134952  0.19203838     0.10100
C1537       C  0.93686803  0.19209415  0.18670799     0.63100
H1538       H  0.90739992  0.16551641  0.13770821     0.07500
F1539       F  0.72797732  0.06304608  0.06448532    -0.20000
F1540       F  0.78440873  0.04755026  0.06609021    -0.16200
F1541       F  0.77337828  0.07406486  0.02955674    -0.19700
F1542       F  0.94334176  0.24686393  0.12177257    -0.23100
F1543       F  0.88694924  0.26046441  0.13250621    -0.24500
F1544       F  0.92890548  0.28953367  0.09580046    -0.18500
F1545       F  0.95109471  0.16130749  0.18383807    -0.21000
F1546       F  0.94389447  0.20827543  0.21239252    -0.22200
F1547       F  0.96579344  0.22989572  0.17137168    -0.19400
F1548       F  0.74303156  0.17400264  0.15916439    -0.19400
F1549       F  0.74048113  0.12838043  0.12628939    -0.23300
F1550       F  0.78856846  0.20551102  0.12381798    -0.24900
C1551       C  0.83877321  0.17237267  0.52569493     0.30200
C1552       C  0.84619409  0.16876035  0.97255291     0.30200
C1553       C  0.85943134  0.14466180  0.51480287    -0.06000
C1554       C  0.79251927  0.15283386  0.51065345    -0.06800
C1555       C  0.86983340  0.21990700  0.51231711    -0.06700
C1556       C  0.86115970  0.14097572  0.98769749    -0.06000
C1557       C  0.79629131  0.14906201  0.98362028    -0.06800
C1558       C  0.87396169  0.21659517  0.98528533    -0.06700
C1559       C  0.87781983  0.11283025  0.98223729    -0.32100
N1560       N  0.88861205  0.10175756  0.00537773     0.14400
C1561       C  0.87777770  0.12101879  0.52541697    -0.32100
H1562       H  0.88341166  0.11845948  0.54610263     0.16400
C1563       C  0.75153370  0.12390941  0.97384272    -0.31000
N1564       N  0.72088491  0.11537925  0.49364499     0.13200
C1565       C  0.74538251  0.13324078  0.51642274    -0.31000
C1566       C  0.89609034  0.25963672  0.97508970    -0.31300
N1567       N  0.90408912  0.29007158  0.49470964     0.13700
H1568       H  0.90285866  0.26784851  0.95439977     0.16300
C1569       C  0.88639024  0.26644116  0.51739011    -0.31300
H1570       H  0.88364256  0.28179269  0.53559553     0.16300
H1571       H  0.73006804  0.13016900  0.53568206     0.16300
H1572       H  0.88300043  0.10216422  0.96300558     0.16400
H1573       H  0.74167219  0.11201827  0.95363428     0.16300
C1574       C  0.84105972  0.16687723  0.77549405     0.30200
C1575       C  0.84538026  0.16077824  0.72225395     0.30200
C1576       C  0.86853733  0.14591838  0.76460071    -0.06000
C1577       C  0.79305959  0.13894753  0.76140518    -0.06800
C1578       C  0.86377865  0.21342667  0.76085771    -0.06700
C1579       C  0.86912283  0.14110884  0.73747118    -0.06000
C1580       C  0.79597394  0.13405362  0.73438221    -0.06800
C1581       C  0.86626658  0.20913641  0.73383462    -0.06700
C1582       C  0.88960550  0.11639726  0.73203624    -0.32100
N1583       N  0.90425133  0.10917796  0.75508413     0.14400
C1584       C  0.89138926  0.12660414  0.77516214    -0.32100
H1585       H  0.89667146  0.12378630  0.79586803     0.16400
C1586       C  0.75129362  0.10571890  0.72501305    -0.31000
N1587       N  0.72071900  0.09608143  0.74493941     0.13200
C1588       C  0.74560120  0.11647465  0.76743711    -0.31000
C1589       C  0.88435211  0.25137122  0.72300733    -0.31300
N1590       N  0.89225673  0.28217634  0.74243066     0.13700
H1591       H  0.89014337  0.25893109  0.70220556     0.16300
C1592       C  0.87868835  0.25958445  0.76567510    -0.31300
H1593       H  0.87863691  0.27544112  0.78431705     0.16300
H1594       H  0.73047977  0.11537970  0.78649392     0.16300
H1595       H  0.89253517  0.10343576  0.71300957     0.16400
H1596       H  0.74139466  0.09402820  0.70478656     0.16300
N1597       N  0.97618711  0.48778432  0.53470553    -0.05900
N1598       N  0.96368322  0.47271588  0.55929072    -0.58100
N1599       N  0.96887307  0.06866559  0.00420445    -0.05600
N1600       N  0.96080043  0.10212157  0.00667144    -0.60200
N1601       N  0.92929472  0.02832692  0.00361701    -0.05200
N1602       N  0.89322513  0.03322929  0.00561122    -0.58000
N1603       N  0.51617093  0.02819346  0.53506979    -0.04900
N1604       N  0.53099182  0.04070298  0.55996145    -0.60500
C1605       C  0.99839104  0.50553119  0.57520135     0.96200
C1606       C  0.91359959  0.07935867  0.00807246     0.96000
N1607       N  0.56118032  0.10984834  0.94034633    -0.06100
N1608       N  0.57219328  0.14520490  0.92510513    -0.58600
N1609       N  0.60265663  0.07742594  0.99073533    -0.04200
N1610       N  0.64029461  0.09283806  0.50579276    -0.59900
N1611       N  0.61104788  0.06823379  0.96666687    -0.06200
N1612       N  0.65330489  0.07570434  0.96518957    -0.58900
N1613       N  0.55114283  0.11749256  0.96439746    -0.03900
N1614       N  0.55375441  0.15697776  0.96564420    -0.60000
Mn1615     Mn  0.53603831  0.07358821  0.49898735     1.18400
C1616       C  0.56664786  0.17398931  0.94124729     0.98300
C1617       C  0.67129453  0.09083572  0.48947186     0.99000
N1618       N  0.88422137  0.44629270  0.96313083    -0.06200
N1619       N  0.84289006  0.44116255  0.96386104    -0.62500
N1620       N  0.94293011  0.39504188  0.96658041    -0.05000
N1621       N  0.93918923  0.35501495  0.96565775    -0.63200
N1622       N  0.93206441  0.40293137  0.99032115    -0.05700
N1623       N  0.91954855  0.36743285  0.50574086    -0.62700
N1624       N  0.89255648  0.43598245  0.93932698    -0.04600
N1625       N  0.85570086  0.42218495  0.92378396    -0.63400
Mn1626     Mn  0.92984373  0.46517953  0.99819006     1.10700
C1627       C  0.82513275  0.42624999  0.93944793     0.99500
C1628       C  0.92475630  0.33810896  0.98997858     0.99600
N1629       N  0.56666280  0.48562749  0.92750696    -0.05700
N1630       N  0.60358794  0.48192798  0.92676654    -0.61100
N1631       N  0.97900447  0.48305472  0.89563049    -0.05000
N1632       N  0.96466333  0.46886381  0.87086525    -0.57800
N1633       N  0.51843371  0.02389899  0.89565015    -0.06300
N1634       N  0.53117791  0.03750114  0.87085165    -0.60600
N1635       N  0.52761698  0.44473612  0.92759711    -0.05300
N1636       N  0.53706164  0.41205623  0.92683942    -0.57800
Mn1637     Mn  0.56471841  0.04812369  0.93217091     1.20200
Mn1638     Mn  0.95930324  0.43888563  0.93192364     1.10100
Cl1639     Cl  0.99746833  0.00644743  0.96530685    -0.85800
C1640       C  0.58444964  0.43592071  0.92595290     0.96600
C1641       C  0.49702864  0.00330308  0.85527034     0.96300
N1642       N  0.97673636  0.48211013  0.78455050    -0.05900
N1643       N  0.96333450  0.46831646  0.80926440    -0.58100
N1644       N  0.97817266  0.06839073  0.75407935    -0.05600
N1645       N  0.97347257  0.10408396  0.75612928    -0.60200
N1646       N  0.93688063  0.02963224  0.75408336    -0.05200
N1647       N  0.90313081  0.03789464  0.75601554    -0.58000
N1648       N  0.51813321  0.02100954  0.78477823    -0.04900
N1649       N  0.53300264  0.03378301  0.80959310    -0.60500
C1650       C  0.99895413  0.50041407  0.82500439     0.96200
C1651       C  0.92657157  0.08428200  0.75790418     0.96000
N1652       N  0.57440269  0.10586838  0.69159862    -0.06100
N1653       N  0.59534323  0.14430967  0.67771239    -0.58600
N1654       N  0.60425061  0.06277149  0.74129576    -0.04200
N1655       N  0.64113270  0.07610339  0.75657783    -0.59900
N1656       N  0.61167724  0.05210045  0.71735256    -0.06200
N1657       N  0.65291945  0.05690384  0.71627379    -0.58900
N1658       N  0.56557542  0.11449734  0.71574045    -0.03900
N1659       N  0.57978415  0.15820399  0.71859377    -0.60000
Mn1660     Mn  0.54221565  0.06694447  0.74917058     1.18400
C1661       C  0.59800737  0.17638512  0.69498633     0.98300
C1662       C  0.67104610  0.07167379  0.74070117     0.99000
N1663       N  0.88256568  0.44676649  0.71483387    -0.06200
N1664       N  0.84020763  0.43891762  0.71762725    -0.62500
N1665       N  0.93271664  0.38857102  0.71487089    -0.05000
N1666       N  0.92464738  0.34675141  0.71287922    -0.63200
N1667       N  0.92543854  0.39738594  0.73931486    -0.05700
N1668       N  0.91124705  0.36090073  0.75422793    -0.62700
N1669       N  0.88925393  0.43755282  0.69035554    -0.04600
N1670       N  0.85050815  0.42213300  0.67628080    -0.63400
Mn1671     Mn  0.93018416  0.46302667  0.74848660     1.10700
C1672       C  0.82062188  0.42390142  0.69366223     0.99500
C1673       C  0.91157705  0.32994736  0.73732003     0.99600
N1674       N  0.55744675  0.47022001  0.67596395    -0.05700
N1675       N  0.58969572  0.45976414  0.67379411    -0.61100
N1676       N  0.97748678  0.48301542  0.64566260    -0.05000
N1677       N  0.96242107  0.47218375  0.62072447    -0.57800
N1678       N  0.51973740  0.02111168  0.64621569    -0.06300
N1679       N  0.53321112  0.03633939  0.62170933    -0.60600
N1680       N  0.51536164  0.43256221  0.67511885    -0.05300
N1681       N  0.51793031  0.39569371  0.67238089    -0.57800
Mn1682     Mn  0.56627736  0.03820029  0.68244982     1.20200
Mn1683     Mn  0.95260242  0.43533750  0.68107534     1.10100
Cl1684     Cl  0.99777204  0.00103834  0.71516826    -0.85800
C1685       C  0.56440059  0.41326166  0.67093871     0.96600
C1686       C  0.49702203  0.00602016  0.60566356     0.96300
C1687       C  0.65369508  0.33787865  0.90571984     0.30200
C1688       C  0.65169125  0.34443112  0.95925234     0.30200
C1689       C  0.63670838  0.36903247  0.91727139    -0.06000
C1690       C  0.62349792  0.29234438  0.92013191    -0.06800
C1691       C  0.70225430  0.36070764  0.91929188    -0.06700
C1692       C  0.63592706  0.37241163  0.94463110    -0.06000
C1693       C  0.62260040  0.29634864  0.94711658    -0.06800
C1694       C  0.70027657  0.36348265  0.94666795    -0.06700
C1695       C  0.62081914  0.40172479  0.95082933    -0.32100
N1696       N  0.61097749  0.41483531  0.92810083     0.14400
C1697       C  0.62180294  0.39647918  0.90758455    -0.32100
H1698       H  0.61779470  0.40204883  0.88714954     0.16400
C1699       C  0.59979651  0.25304748  0.95712437    -0.31000
N1700       N  0.58744906  0.22220188  0.93697811     0.13200
C1701       C  0.60188801  0.24563522  0.91405680    -0.31000
C1702       C  0.74520526  0.38963695  0.95583277    -0.31300
N1703       N  0.77527441  0.40130235  0.93541752     0.13700
H1704       H  0.75552597  0.40024084  0.97614674     0.16300
C1705       C  0.74975504  0.38524335  0.91273869    -0.31300
H1706       H  0.76462980  0.39294249  0.89320329     0.16300
H1707       H  0.59908649  0.23026137  0.89477521     0.16300
H1708       H  0.61619076  0.41199094  0.97027987     0.16400
H1709       H  0.59526156  0.24475933  0.97784542     0.16300
C1710       C  0.65451113  0.33551193  0.65708207     0.30200
C1711       C  0.64666916  0.34202121  0.71003821     0.30200
C1712       C  0.61953036  0.34816162  0.66654871    -0.06000
C1713       C  0.64178633  0.29192987  0.67237620    -0.06800
C1714       C  0.70038857  0.37237874  0.67140140    -0.06700
C1715       C  0.61553984  0.35128546  0.69345098    -0.06000
C1716       C  0.63832411  0.29600893  0.69940423    -0.06800
C1717       C  0.69606530  0.37609554  0.69878074    -0.06700
C1718       C  0.59394800  0.37527756  0.69806317    -0.32100
N1719       N  0.58384550  0.38573854  0.67453589     0.14400
C1720       C  0.59998413  0.37019460  0.65512149    -0.32100
H1721       H  0.60059827  0.37738778  0.63440709     0.16400
C1722       C  0.62748997  0.25526703  0.71016529    -0.31000
N1723       N  0.62080392  0.22498061  0.69054687     0.13200
C1724       C  0.63133879  0.24738799  0.66728959    -0.31000
C1725       C  0.74031605  0.39445024  0.70919194    -0.31300
N1726       N  0.77132078  0.40363456  0.68951649     0.13700
H1727       H  0.74891596  0.39721635  0.72990515     0.16300
C1728       C  0.74719514  0.38812923  0.66660819    -0.31300
H1729       H  0.76199252  0.38562238  0.64811763     0.16300
H1730       H  0.62976323  0.23197689  0.64824178     0.16300
H1731       H  0.58905254  0.38715117  0.71703495     0.16400
H1732       H  0.62326961  0.24750090  0.73090765     0.16300
C1733       C  0.60212908  0.30415644  0.77972309    -0.11700
C1734       C  0.63804204  0.34112678  0.79399434     0.10900
C1735       C  0.67031191  0.38260144  0.78151545    -0.03500
C1736       C  0.66944820  0.38306465  0.75401330    -0.06200
C1737       C  0.63763753  0.34337099  0.73922473    -0.17000
C1738       C  0.59870662  0.30601423  0.75255814     0.01900
C1739       C  0.63942615  0.33569884  0.82222823     0.11900
C1740       C  0.70554395  0.42555997  0.79713973     0.62500
H1741       H  0.69418140  0.41434416  0.74396460     0.11900
C1742       C  0.55226015  0.26799572  0.74050735     0.54600
H1743       H  0.57589770  0.27366821  0.79005204     0.07700
C1744       C  0.60519804  0.33399560  0.83899686    -0.06100
C1745       C  0.60804618  0.32716980  0.86556089    -0.06900
C1746       C  0.64780532  0.33011321  0.87622163    -0.16400
C1747       C  0.67630428  0.32230211  0.85897583    -0.02000
C1748       C  0.67293011  0.32755137  0.83195934    -0.09600
C1749       C  0.56683193  0.34080495  0.82937484     0.64700
H1750       H  0.58003559  0.32197946  0.87847860     0.10100
C1751       C  0.70526689  0.30254271  0.86678775     0.63100
H1752       H  0.69557488  0.32387904  0.81822416     0.07500
F1753       F  0.51635236  0.27010141  0.75228785    -0.20000
F1754       F  0.54499670  0.22522721  0.74561027    -0.16200
F1755       F  0.54870887  0.27114036  0.71374497    -0.19700
F1756       F  0.73720208  0.41824207  0.80944103    -0.23100
F1757       F  0.68266226  0.43596137  0.81604236    -0.24500
F1758       F  0.73030072  0.46341403  0.78114120    -0.18500
F1759       F  0.69143213  0.26325057  0.85165754    -0.21000
F1760       F  0.69971084  0.28982605  0.89281200    -0.22200
F1761       F  0.75210022  0.33403285  0.86184467    -0.19400
F1762       F  0.54536475  0.34918133  0.85016522    -0.19400
F1763       F  0.53295392  0.30181236  0.81588195    -0.23300
F1764       F  0.58535825  0.37819088  0.81292777    -0.24900
C1765       C  0.62225248  0.34496703  0.53256801    -0.11700
C1766       C  0.65671648  0.33982886  0.54374966     0.10900
C1767       C  0.68360119  0.32857986  0.52793547    -0.03500
C1768       C  0.68040640  0.33068523  0.00074047    -0.06200
C1769       C  0.65025502  0.34216614  0.98907996    -0.17000
C1770       C  0.61481229  0.34052155  0.50535991     0.01900
C1771       C  0.65824103  0.33889141  0.57229899     0.11900
C1772       C  0.71332508  0.31214265  0.53965040     0.62500
H1773       H  0.70025216  0.32129630  0.98831366     0.11900
C1774       C  0.56572519  0.32625934  0.99677459     0.54600
H1775       H  0.59791850  0.34759830  0.54544036     0.07700
C1776       C  0.68991736  0.37822365  0.58719923    -0.06100
C1777       C  0.68885014  0.37435245  0.61450580    -0.06900
C1778       C  0.65500427  0.33358570  0.62730845    -0.16400
C1779       C  0.61815635  0.29705081  0.61177893    -0.02000
C1780       C  0.62344095  0.29895789  0.58446655    -0.09600
C1781       C  0.72168883  0.42479942  0.57448897     0.64700
H1782       H  0.71216761  0.40500810  0.62595929     0.10100
C1783       C  0.57066869  0.25746315  0.62135265     0.63100
H1784       H  0.59756492  0.27037725  0.57222637     0.07500
F1785       F  0.55844179  0.36151505  0.00233662    -0.20000
F1786       F  0.53350573  0.28820907  0.01102908    -0.16200
F1787       F  0.55625682  0.31361022  0.97054125    -0.19700
F1788       F  0.68503598  0.27264229  0.55383633    -0.23100
F1789       F  0.74708692  0.34554283  0.55628824    -0.24500
F1790       F  0.73582129  0.30192157  0.52035368    -0.18500
F1791       F  0.53557127  0.25617795  0.60680171    -0.21000
F1792       F  0.56094970  0.26088495  0.64739162    -0.22200
F1793       F  0.56775669  0.21611083  0.61716894    -0.19400
F1794       F  0.75124559  0.45832011  0.59268743    -0.19400
F1795       F  0.69442558  0.43880444  0.56315651    -0.23300
F1796       F  0.74915770  0.42198986  0.55517070    -0.24900
C1797       C  0.81990472  0.13148837  0.84791413    -0.11700
C1798       C  0.85134583  0.17373670  0.85990318     0.10900
C1799       C  0.88128063  0.21275497  0.84504232    -0.03500
C1800       C  0.87661980  0.20826620  0.81780507    -0.06200
C1801       C  0.84175293  0.16710603  0.80518780    -0.17000
C1802       C  0.81578625  0.12634560  0.82061277     0.01900
C1803       C  0.85191900  0.17549889  0.88834174     0.11900
C1804       C  0.91830295  0.25853902  0.85778195     0.62500
H1805       H  0.90287483  0.23646610  0.80638081     0.11900
C1806       C  0.78486284  0.07631926  0.81089400     0.54600
H1807       H  0.79895163  0.10176422  0.86025459     0.07700
C1808       C  0.81863344  0.18010332  0.90232526    -0.06100
C1809       C  0.82024659  0.18005066  0.92958267    -0.06900
C1810       C  0.85155547  0.17218909  0.94301020    -0.16400
C1811       C  0.89065427  0.17740239  0.92871317    -0.02000
C1812       C  0.88731046  0.17416901  0.90130564    -0.09600
C1813       C  0.78129823  0.18431718  0.88858228     0.64700
H1814       H  0.79727090  0.18717726  0.94054827     0.10100
C1815       C  0.93862030  0.19218415  0.93977159     0.63100
H1816       H  0.91427669  0.17370463  0.88980004     0.07500
F1817       F  0.73859602  0.06062118  0.81647573    -0.20000
F1818       F  0.79667694  0.04921595  0.82425854    -0.16200
F1819       F  0.78886217  0.06908782  0.78450626    -0.19700
F1820       F  0.95215575  0.25401136  0.86967314    -0.23100
F1821       F  0.89810115  0.27228099  0.87656973    -0.24500
F1822       F  0.94022808  0.29319541  0.83948649    -0.18500
F1823       F  0.94749446  0.15776523  0.93508619    -0.21000
F1824       F  0.94406315  0.20342290  0.96626580    -0.22200
F1825       F  0.97249902  0.23122947  0.92685290    -0.19400
F1826       F  0.75441251  0.19157055  0.90634147    -0.19400
F1827       F  0.75160560  0.14418792  0.87447155    -0.23300
F1828       F  0.80195267  0.22089888  0.87152568    -0.24900
C1829       C  0.81073962  0.12616986  0.59579212    -0.11700
C1830       C  0.84267084  0.16587106  0.60976507     0.10900
C1831       C  0.87250883  0.20761202  0.59705047    -0.03500
C1832       C  0.86927316  0.20786321  0.56987086    -0.06200
C1833       C  0.83576069  0.16884635  0.55520932    -0.17000
C1834       C  0.80682587  0.12594260  0.56851154     0.01500
C1835       C  0.84261964  0.16303837  0.63808621     0.11900
C1836       C  0.90825742  0.25155586  0.61191628     0.62500
H1837       H  0.89617248  0.23797632  0.56019124     0.11900
C1838       C  0.77311227  0.07783834  0.55656081     0.54600
H1839       H  0.78897425  0.09452993  0.60652164     0.07700
C1840       C  0.80899798  0.16563283  0.65308667    -0.06100
C1841       C  0.81285294  0.16630351  0.68024243    -0.06900
C1842       C  0.84766704  0.16241885  0.69263650    -0.16400
C1843       C  0.88646940  0.16988685  0.67720003    -0.02000
C1844       C  0.88017205  0.16399837  0.64998865    -0.09600
C1845       C  0.76988480  0.16845430  0.64051846     0.64700
H1846       H  0.78915520  0.17134971  0.69203872     0.10100
C1847       C  0.93686875  0.19209548  0.68670789     0.63100
H1848       H  0.90740075  0.16551841  0.63770808     0.07500
F1849       F  0.72797822  0.06304564  0.56448603    -0.20000
F1850       F  0.78441076  0.04755112  0.56609053    -0.16200
F1851       F  0.77337871  0.07406482  0.52955720    -0.19700
F1852       F  0.94334048  0.24686624  0.62177345    -0.23100
F1853       F  0.88694678  0.26046565  0.63250575    -0.24500
F1854       F  0.92890419  0.28953486  0.59580037    -0.18500
F1855       F  0.95109573  0.16130906  0.68383787    -0.21000
F1856       F  0.94389519  0.20827692  0.71239241    -0.22200
F1857       F  0.96579397  0.22989703  0.67137156    -0.19400
F1858       F  0.74303060  0.17400119  0.65916506    -0.19400
F1859       F  0.74048104  0.12837997  0.62628971    -0.23300
F1860       F  0.78856719  0.20551067  0.62381866    -0.24900
C1861       C  0.83877308  0.67237258  0.02569473     0.30200
C1862       C  0.84619383  0.66876058  0.47255301     0.30200
C1863       C  0.85943103  0.64466151  0.01480274    -0.06000
C1864       C  0.79251923  0.65283408  0.01065316    -0.06800
C1865       C  0.86983369  0.71990689  0.01231699    -0.06700
C1866       C  0.86115963  0.64097603  0.48769757    -0.06000
C1867       C  0.79629112  0.64906217  0.48362049    -0.06800
C1868       C  0.87396137  0.71659539  0.48528542    -0.06700
C1869       C  0.87782001  0.61283081  0.48223733    -0.32100
N1870       N  0.88861239  0.60175816  0.50537770     0.14400
C1871       C  0.87777725  0.62101839  0.02541687    -0.32100
H1872       H  0.88341127  0.61845914  0.04610252     0.16400
C1873       C  0.75153346  0.62390921  0.47384307    -0.31000
N1874       N  0.72088493  0.61537982  0.99364454     0.13200
C1875       C  0.74538245  0.63324128  0.01642232    -0.31000
C1876       C  0.89609034  0.75963700  0.47508984    -0.31300
N1877       N  0.90408938  0.79007145  0.99470950     0.13700
H1878       H  0.90285873  0.76784885  0.45439992     0.16300
C1879       C  0.88639036  0.76644098  0.01738991    -0.31300
H1880       H  0.88364232  0.78179246  0.03559537     0.16300
H1881       H  0.73006784  0.63016959  0.03568161     0.16300
H1882       H  0.88300088  0.60216505  0.46300553     0.16400
H1883       H  0.74167180  0.61201789  0.45363465     0.16300
C1884       C  0.84105903  0.66687685  0.27549397     0.30200
C1885       C  0.84537949  0.66077772  0.22225383     0.30200
C1886       C  0.86853620  0.64591753  0.26460068    -0.06000
C1887       C  0.79305890  0.63894741  0.26140508    -0.06800
C1888       C  0.86377832  0.71342627  0.26085759    -0.06700
C1889       C  0.86912161  0.64110789  0.23747114    -0.06000
C1890       C  0.79597319  0.63405355  0.23438208    -0.06800
C1891       C  0.86626624  0.70913598  0.23383449    -0.06700
C1892       C  0.88960420  0.61639626  0.23203629    -0.32100
N1893       N  0.90424997  0.60917690  0.25508415     0.14400
C1894       C  0.89138804  0.62660327  0.27516212    -0.32100
H1895       H  0.89667053  0.62378569  0.29586808     0.16400
C1896       C  0.75129287  0.60571900  0.22501295    -0.31000
N1897       N  0.72071833  0.59608136  0.24493936     0.13200
C1898       C  0.74560055  0.61647452  0.26743704    -0.31000
C1899       C  0.88435169  0.75137080  0.22300720    -0.31300
N1900       N  0.89225619  0.78217591  0.24243054     0.13700
H1901       H  0.89014283  0.75893067  0.20220544     0.16300
C1902       C  0.87868788  0.75958401  0.26567498    -0.31300
H1903       H  0.87863631  0.77544064  0.28431692     0.16300
H1904       H  0.73047911  0.61537944  0.28649388     0.16300
H1905       H  0.89253401  0.60343477  0.21300955     0.16400
H1906       H  0.74139383  0.59402836  0.20478643     0.16300
N1907       N  0.97618704  0.98778391  0.03470523    -0.05900
N1908       N  0.96368315  0.97271533  0.05929039    -0.58100
N1909       N  0.96887323  0.56866590  0.50420461    -0.05600
N1910       N  0.96080069  0.60212198  0.50667151    -0.60200
N1911       N  0.92929481  0.52832728  0.50361712    -0.05200
N1912       N  0.89322527  0.53322978  0.50561114    -0.58000
N1913       N  0.51617061  0.52819319  0.03506951    -0.04900
N1914       N  0.53099151  0.54070255  0.05996120    -0.60500
C1915       C  0.99839100  0.00553052  0.07520107     0.96200
C1916       C  0.91359985  0.57935917  0.50807237     0.96000
N1917       N  0.56118070  0.60984836  0.44034675    -0.06100
N1918       N  0.57219377  0.64520494  0.42510555    -0.58600
N1919       N  0.60265658  0.57742575  0.49073573    -0.04200
N1920       N  0.64029458  0.59283861  0.00579231    -0.59900
N1921       N  0.61104778  0.56823345  0.46666728    -0.06200
N1922       N  0.65330472  0.57570381  0.46519002    -0.58900
N1923       N  0.55114312  0.61749258  0.46439786    -0.03900
N1924       N  0.55375462  0.65697773  0.46564457    -0.60000
Mn1925     Mn  0.53603794  0.57358818  0.99898704     1.18400
C1926       C  0.56664831  0.67398935  0.44124770     0.98300
C1927       C  0.67129456  0.59083644  0.98947138     0.99000
N1928       N  0.88422167  0.94629294  0.46313121    -0.06200
N1929       N  0.84289032  0.94116272  0.46386151    -0.62500
N1930       N  0.94293046  0.89504216  0.46658066    -0.05000
N1931       N  0.93918944  0.85501518  0.46565794    -0.63200
N1932       N  0.93206497  0.90293171  0.49032143    -0.05700
N1933       N  0.91954831  0.86743263  0.00574054    -0.62700
N1934       N  0.89255680  0.93598287  0.43932733    -0.04600
N1935       N  0.85570115  0.92218547  0.42378433    -0.63400
Mn1936     Mn  0.92984403  0.96517975  0.49819038     1.10700
C1937       C  0.82513303  0.92625030  0.43944838     0.99500
C1938       C  0.92475668  0.83810924  0.48997879     0.99600
N1939       N  0.56666283  0.98562735  0.42750725    -0.05700
N1940       N  0.60358792  0.98192776  0.42676684    -0.61100
N1941       N  0.97900461  0.98305502  0.39563077    -0.05000
N1942       N  0.96466334  0.96886419  0.37086554    -0.57800
N1943       N  0.51843374  0.52389908  0.39565045    -0.06300
N1944       N  0.53117785  0.53750136  0.37085195    -0.60600
N1945       N  0.52761695  0.94473603  0.42759733    -0.05300
N1946       N  0.53706154  0.91205608  0.42683956    -0.57800
Mn1947     Mn  0.56471849  0.54812358  0.43217125     1.20200
Mn1948     Mn  0.95930347  0.93888589  0.43192390     1.10100
Cl1949     Cl  0.99746826  0.50644755  0.46530714    -0.85800
C1950       C  0.58444954  0.93592045  0.42595310     0.96600
C1951       C  0.49702846  0.50330345  0.35527060     0.96300
N1952       N  0.97673602  0.98211021  0.28455067    -0.05900
N1953       N  0.96333424  0.96831671  0.30926461    -0.58100
N1954       N  0.97817193  0.56839044  0.25407938    -0.05600
N1955       N  0.97347156  0.60408348  0.25612919    -0.60200
N1956       N  0.93688000  0.52963178  0.25408351    -0.05200
N1957       N  0.90313003  0.53789390  0.25601576    -0.58000
N1958       N  0.51813276  0.52100971  0.28477837    -0.04900
N1959       N  0.53300218  0.53378343  0.30959323    -0.60500
C1960       C  0.99895390  0.00041443  0.32500457     0.96200
C1961       C  0.92657053  0.58428128  0.25790419     0.96000
N1962       N  0.57440176  0.60586792  0.19159840    -0.06100
N1963       N  0.59534221  0.64430922  0.17771214    -0.58600
N1964       N  0.60424996  0.56277137  0.24129578    -0.04200
N1965       N  0.64113206  0.57610324  0.25657786    -0.59900
N1966       N  0.61167656  0.55210028  0.21735260    -0.06200
N1967       N  0.65291877  0.55690363  0.21627382    -0.58900
N1968       N  0.56557437  0.61449685  0.21574021    -0.03900
N1969       N  0.57978286  0.65820345  0.21859345    -0.60000
Mn1970     Mn  0.54221496  0.56694432  0.24917059     1.18400
C1971       C  0.59800609  0.67638460  0.19498603     0.98300
C1972       C  0.67104542  0.57167359  0.24070120     0.99000
N1973       N  0.88256530  0.94676629  0.21483395    -0.06200
N1974       N  0.84020729  0.93891755  0.21762735    -0.62500
N1975       N  0.93271628  0.88857081  0.21487093    -0.05000
N1976       N  0.92464668  0.84675109  0.21287916    -0.63200
N1977       N  0.92543828  0.89738570  0.23931495    -0.05700
N1978       N  0.91124660  0.86090035  0.25422794    -0.62700
N1979       N  0.88925354  0.93755267  0.19035560    -0.04600
N1980       N  0.85050775  0.92213294  0.17628089    -0.63400
Mn1981     Mn  0.93018378  0.96302645  0.24848671     1.10700
C1982       C  0.82062155  0.92390147  0.19366232     0.99500
C1983       C  0.91157634  0.82994691  0.23731995     0.99600
N1984       N  0.55744667  0.97022004  0.17596402    -0.05700
N1985       N  0.58969576  0.95976428  0.17379440    -0.61100
N1986       N  0.97748640  0.98301489  0.14566241    -0.05000
N1987       N  0.96242084  0.97218304  0.12072424    -0.57800
N1988       N  0.51973686  0.52111117  0.14621551    -0.06300
N1989       N  0.53321071  0.53633881  0.12170915    -0.60600
N1990       N  0.51536161  0.93256218  0.17511880    -0.05300
N1991       N  0.51793040  0.89569375  0.17238098    -0.57800
Mn1992     Mn  0.56627668  0.53819989  0.18244974     1.20200
Mn1993     Mn  0.95260203  0.93533723  0.18107533     1.10100
Cl1994     Cl  0.99777171  0.50103814  0.21516820    -0.85800
C1995       C  0.56440071  0.91326180  0.17093903     0.96600
C1996       C  0.49702176  0.50601949  0.10566332     0.96300
C1997       C  0.65369547  0.83787862  0.40572026     0.30200
C1998       C  0.65169145  0.84443126  0.45925273     0.30200
C1999       C  0.63670861  0.86903239  0.41727174    -0.06000
C2000       C  0.62349838  0.79234441  0.42013236    -0.06800
C2001       C  0.70225463  0.86070770  0.41929230    -0.06700
C2002       C  0.63592726  0.87241168  0.44463145    -0.06000
C2003       C  0.62260065  0.79634873  0.44711701    -0.06800
C2004       C  0.70027683  0.86348288  0.44666837    -0.06700
C2005       C  0.62081899  0.90172459  0.45082964    -0.32100
N2006       N  0.61097725  0.91483491  0.42810109     0.14400
C2007       C  0.62180283  0.89647877  0.40758485    -0.32100
H2008       H  0.61779454  0.90204824  0.38714983     0.16400
C2009       C  0.59979675  0.75304756  0.45712482    -0.31000
N2010       N  0.58744958  0.72220195  0.43697857     0.13200
C2011       C  0.60188873  0.74563528  0.41405727    -0.31000
C2012       C  0.74520548  0.88963749  0.45583314    -0.31300
N2013       N  0.77527469  0.90130274  0.43541797     0.13700
H2014       H  0.75552617  0.90024160  0.47614716     0.16300
C2015       C  0.74975538  0.88524333  0.41273913    -0.31300
H2016       H  0.76463019  0.89294208  0.39320374     0.16300
H2017       H  0.59908742  0.73026142  0.39477571     0.16300
H2018       H  0.61619034  0.91199064  0.47028013     0.16400
H2019       H  0.59526167  0.74475945  0.47784587     0.16300
C2020       C  0.65451090  0.83551201  0.15708208     0.30200
C2021       C  0.64666881  0.84202090  0.21003835     0.30200
C2022       C  0.61953006  0.84816151  0.16654885    -0.06000
C2023       C  0.64178600  0.79192977  0.17237613    -0.06800
C2024       C  0.70038829  0.87237881  0.17140147    -0.06700
C2025       C  0.61553939  0.85128506  0.19345117    -0.06000
C2026       C  0.63832366  0.79600866  0.19940420    -0.06800
C2027       C  0.69606494  0.87609536  0.19878085    -0.06700
C2028       C  0.59394788  0.87527744  0.19806345    -0.32100
N2029       N  0.58384561  0.88573871  0.17453618     0.14400
C2030       C  0.59998412  0.87019479  0.15512178    -0.32100
H2031       H  0.60059845  0.87738832  0.13440733     0.16400
C2032       C  0.62748896  0.75526653  0.21016516    -0.31000
N2033       N  0.62080298  0.72498020  0.19054671     0.13200
C2034       C  0.63133814  0.74738773  0.16728945    -0.31000
C2035       C  0.74031568  0.89445013  0.20919204    -0.31300
N2036       N  0.77132048  0.90363470  0.18951659     0.13700
H2037       H  0.74891554  0.89721607  0.22990526     0.16300
C2038       C  0.74719494  0.88812964  0.16660825    -0.31300
H2039       H  0.76199248  0.88562307  0.14811766     0.16300
H2040       H  0.62976250  0.73197664  0.14824167     0.16300
H2041       H  0.58905255  0.88715102  0.21703525     0.16400
H2042       H  0.62326806  0.74750020  0.23090752     0.16300
C2043       C  0.60212931  0.80415660  0.27972355    -0.11700
C2044       C  0.63804231  0.84112698  0.29399474     0.10900
C2045       C  0.67031201  0.88260158  0.28151572    -0.03500
C2046       C  0.66944807  0.88306451  0.25401355    -0.06200
C2047       C  0.63763749  0.84337075  0.23922500    -0.17000
C2048       C  0.59870664  0.80601416  0.25255858     0.01900
C2049       C  0.63942658  0.83569905  0.32222867     0.11900
C2050       C  0.70554425  0.92556019  0.29713986     0.62500
H2051       H  0.69418120  0.91434414  0.24396474     0.11900
C2052       C  0.55225983  0.76799595  0.24050797     0.54600
H2053       H  0.57589798  0.77366843  0.29005258     0.07700
C2054       C  0.60519816  0.83399512  0.33899736    -0.06100
C2055       C  0.60804641  0.82716926  0.36556136    -0.06900
C2056       C  0.64780575  0.83011308  0.37622206    -0.16400
C2057       C  0.67630498  0.82230246  0.35897621    -0.02000
C2058       C  0.67293084  0.82755194  0.33195974    -0.09600
C2059       C  0.56683172  0.84080410  0.32937554     0.64700
H2060       H  0.58003576  0.82197862  0.37847909     0.10100
C2061       C  0.70526746  0.80254285  0.36678803     0.63100
H2062       H  0.69557579  0.82387995  0.31822453     0.07500
F2063       F  0.51635258  0.77010301  0.25228814    -0.20000
F2064       F  0.54499536  0.72522721  0.24561151    -0.16200
F2065       F  0.54870876  0.77113987  0.21374551    -0.19700
F2066       F  0.73720273  0.91824234  0.30944074    -0.23100
F2067       F  0.68266304  0.93596155  0.31604284    -0.24500
F2068       F  0.73030046  0.96341428  0.28114127    -0.18500
F2069       F  0.69143241  0.76325075  0.35165770    -0.21000
F2070       F  0.69971139  0.78982617  0.39281228    -0.22200
F2071       F  0.75210087  0.83403275  0.36184495    -0.19400
F2072       F  0.54536431  0.84917981  0.35016608    -0.19400
F2073       F  0.53295394  0.80181160  0.31588244    -0.23300
F2074       F  0.58535783  0.87819042  0.31292879    -0.24900
C2075       C  0.62225264  0.84496724  0.03256769    -0.11700
C2076       C  0.65671653  0.83982901  0.04374945     0.10900
C2077       C  0.68360108  0.82857976  0.02793529    -0.03500
C2078       C  0.68040666  0.83068564  0.50074093    -0.06200
C2079       C  0.65025513  0.84216633  0.48908034    -0.17000
C2080       C  0.61481247  0.84052172  0.00535957     0.01900
C2081       C  0.65824101  0.83889165  0.07229883     0.11900
C2082       C  0.71332463  0.81214224  0.03965029     0.62500
H2083       H  0.70025264  0.82129695  0.48831419     0.11900
C2084       C  0.56572494  0.82625874  0.49677474     0.54600
H2085       H  0.59791872  0.84759868  0.04544003     0.07700
C2086       C  0.68991721  0.87822392  0.08719910    -0.06100
C2087       C  0.68884992  0.87435278  0.11450570    -0.06900
C2088       C  0.65500404  0.83358605  0.12730837    -0.16400
C2089       C  0.61815611  0.79705126  0.11177881    -0.02000
C2090       C  0.62344075  0.79895828  0.08446642    -0.09600
C2091       C  0.72168874  0.92479957  0.07448878     0.64700
H2092       H  0.71216747  0.90500840  0.12595919     0.10100
C2093       C  0.57066840  0.75746367  0.12135248     0.63100
H2094       H  0.59756466  0.77037766  0.07222623     0.07500
F2095       F  0.55844099  0.86151405  0.50233693    -0.20000
F2096       F  0.53350559  0.78820805  0.51102899    -0.16200
F2097       F  0.55625689  0.81361007  0.47054133    -0.19700
F2098       F  0.68503514  0.77264190  0.05383619    -0.23100
F2099       F  0.74708652  0.84554233  0.05628816    -0.24500
F2100       F  0.73582083  0.80192104  0.02035360    -0.18500
F2101       F  0.53557108  0.75617881  0.10680161    -0.21000
F2102       F  0.56094941  0.76088518  0.14739148    -0.22200
F2103       F  0.56775625  0.71611132  0.11716860    -0.19400
F2104       F  0.75124479  0.95832059  0.09268731    -0.19400
F2105       F  0.69442550  0.93880400  0.06315564    -0.23300
F2106       F  0.74915830  0.92199004  0.05517098    -0.24900
C2107       C  0.81990452  0.63148880  0.34791417    -0.11700
C2108       C  0.85134590  0.67373712  0.35990313     0.10900
C2109       C  0.88128087  0.71275513  0.34504212    -0.03500
C2110       C  0.87661969  0.70826611  0.31780487    -0.06200
C2111       C  0.84175244  0.66710595  0.30518773    -0.17000
C2112       C  0.81578568  0.62634572  0.32061283     0.01900
C2113       C  0.85191906  0.67549948  0.38834173     0.11900
C2114       C  0.91830355  0.75853919  0.35778158     0.62500
H2115       H  0.90287481  0.73646581  0.30638049     0.11900
C2116       C  0.78486192  0.57631928  0.31089427     0.54600
H2117       H  0.79895139  0.60176474  0.36025474     0.07700
C2118       C  0.81863299  0.68010319  0.40232520    -0.06100
C2119       C  0.82024581  0.68005018  0.42958265    -0.06900
C2120       C  0.85155513  0.67218928  0.44301025    -0.16400
C2121       C  0.89065429  0.67740329  0.42871326    -0.02000
C2122       C  0.88731065  0.67416993  0.40130571    -0.09600
C2123       C  0.78129785  0.68431709  0.38858214     0.64700
H2124       H  0.79726981  0.68717635  0.44054819     0.10100
C2125       C  0.93862048  0.69218572  0.43977176     0.63100
H2126       H  0.91427709  0.67370589  0.38980018     0.07500
F2127       F  0.73859530  0.56062141  0.31647657    -0.20000
F2128       F  0.79667656  0.54921619  0.32425862    -0.16200
F2129       F  0.78886030  0.56908739  0.28450644    -0.19700
F2130       F  0.95215643  0.75401147  0.36967264    -0.23100
F2131       F  0.89810201  0.77228150  0.37656936    -0.24500
F2132       F  0.94022871  0.79319531  0.33948597    -0.18500
F2133       F  0.94749554  0.65776749  0.43508608    -0.21000
F2134       F  0.94406290  0.70342377  0.46626605    -0.22200
F2135       F  0.97249887  0.73123168  0.42685338    -0.19400
F2136       F  0.75441162  0.69156970  0.40634134    -0.19400
F2137       F  0.75160568  0.64418824  0.37447092    -0.23300
F2138       F  0.80195256  0.72089944  0.37152596    -0.24900
C2139       C  0.81073883  0.62616916  0.09579176    -0.11700
C2140       C  0.84267069  0.66587003  0.10976479     0.10900
C2141       C  0.87250915  0.70761100  0.09705026    -0.03500
C2142       C  0.86927323  0.70786264  0.06987069    -0.06200
C2143       C  0.83576041  0.66884610  0.05520909    -0.17000
C2144       C  0.80682518  0.62594225  0.06851118     0.01500
C2145       C  0.84261913  0.66303719  0.13808596     0.11900
C2146       C  0.90825891  0.75155428  0.11191605     0.62500
H2147       H  0.89617265  0.73797587  0.06019108     0.11900
C2148       C  0.77311122  0.57783813  0.05656027     0.54600
H2149       H  0.78897300  0.59452928  0.10652118     0.07700
C2150       C  0.80899788  0.66563255  0.15308632    -0.06100
C2151       C  0.81285241  0.66630305  0.18024214    -0.06900
C2152       C  0.84766631  0.66241812  0.19263634    -0.16400
C2153       C  0.88646852  0.66988554  0.17719993    -0.02000
C2154       C  0.88017116  0.66399659  0.14998855    -0.09600
C2155       C  0.76988544  0.66845514  0.14051798     0.64700
H2156       H  0.78915487  0.67134947  0.19203828     0.10100
C2157       C  0.93686785  0.69209388  0.18670779     0.63100
H2158       H  0.90739959  0.66551603  0.13770811     0.07500
F2159       F  0.72797718  0.56304585  0.06448520    -0.20000
F2160       F  0.78440878  0.54755029  0.06609005    -0.16200
F2161       F  0.77337798  0.57406472  0.02955668    -0.19700
F2162       F  0.94334184  0.74686355  0.12177219    -0.23100
F2163       F  0.88694964  0.76046419  0.13250623    -0.24500
F2164       F  0.92890570  0.78953368  0.09580044    -0.18500
F2165       F  0.95109449  0.66130717  0.18383795    -0.21000
F2166       F  0.94389429  0.70827548  0.21239228    -0.22200
F2167       F  0.96579335  0.72989515  0.17137131    -0.19400
F2168       F  0.74303179  0.67400309  0.15916443    -0.19400
F2169       F  0.74048087  0.62838088  0.12628936    -0.23300
F2170       F  0.78856872  0.70551150  0.12381811    -0.24900
C2171       C  0.83877315  0.67237271  0.52569490     0.30200
C2172       C  0.84619406  0.66876043  0.97255290     0.30200
C2173       C  0.85943118  0.64466175  0.51480284    -0.06000
C2174       C  0.79251922  0.65283406  0.51065341    -0.06800
C2175       C  0.86983346  0.71990704  0.51231709    -0.06700
C2176       C  0.86115965  0.64097579  0.98769748    -0.06000
C2177       C  0.79629127  0.64906212  0.98362027    -0.06800
C2178       C  0.87396170  0.71659523  0.98528532    -0.06700
C2179       C  0.87781977  0.61283032  0.98223729    -0.32100
N2180       N  0.88861192  0.60175759  0.00537774     0.14400
C2181       C  0.87777757  0.62101870  0.52541694    -0.32100
H2182       H  0.88341159  0.61845934  0.54610251     0.16400
C2183       C  0.75153366  0.62390948  0.97384272    -0.31000
N2184       N  0.72088481  0.61537934  0.49364495     0.13200
C2185       C  0.74538244  0.63324104  0.51642271    -0.31000
C2186       C  0.89609043  0.75963678  0.97508970    -0.31300
N2187       N  0.90408944  0.79007166  0.49470965     0.13700
H2188       H  0.90285868  0.76784858  0.95439978     0.16300
C2189       C  0.88639051  0.76644123  0.51739011    -0.31300
H2190       H  0.88364281  0.78179278  0.53559554     0.16300
H2191       H  0.73006800  0.63016930  0.53568200     0.16300
H2192       H  0.88300037  0.60216428  0.96300559     0.16400
H2193       H  0.74167215  0.61201835  0.95363428     0.16300
C2194       C  0.84105967  0.66687710  0.77549402     0.30200
C2195       C  0.84538037  0.66077814  0.72225391     0.30200
C2196       C  0.86853729  0.64591822  0.76460073    -0.06000
C2197       C  0.79305959  0.63894728  0.76140513    -0.06800
C2198       C  0.86377856  0.71342655  0.76085766    -0.06700
C2199       C  0.86912292  0.64110874  0.73747120    -0.06000
C2200       C  0.79597402  0.63405344  0.73438216    -0.06800
C2201       C  0.86626664  0.70913633  0.73383458    -0.06700
C2202       C  0.88960563  0.61639722  0.73203632    -0.32100
N2203       N  0.90425126  0.60917777  0.75508419     0.14400
C2204       C  0.89138913  0.62660392  0.77516221    -0.32100
H2205       H  0.89667135  0.62378612  0.79586809     0.16400
C2206       C  0.75129372  0.60571886  0.72501294    -0.31000
N2207       N  0.72071907  0.59608125  0.74493931     0.13200
C2208       C  0.74560119  0.61647440  0.76743703    -0.31000
C2209       C  0.88435208  0.75137116  0.72300728    -0.31300
N2210       N  0.89225642  0.78217622  0.74243063     0.13700
H2211       H  0.89014345  0.75893113  0.70220555     0.16300
C2212       C  0.87868797  0.75958425  0.76567501    -0.31300
H2213       H  0.87863633  0.77544089  0.78431702     0.16300
H2214       H  0.73047969  0.61537951  0.78649377     0.16300
H2215       H  0.89253540  0.60343571  0.71300959     0.16400
H2216       H  0.74139484  0.59402841  0.70478645     0.16300
N2217       N  0.97618718  0.98778417  0.53470554    -0.05900
N2218       N  0.96368327  0.97271577  0.55929073    -0.58100
N2219       N  0.96887296  0.56866559  0.00420441    -0.05600
N2220       N  0.96080029  0.60212157  0.00667143    -0.60200
N2221       N  0.92929463  0.52832693  0.00361700    -0.05200
N2222       N  0.89322500  0.53322928  0.00561121    -0.58000
N2223       N  0.51617081  0.52819349  0.53506981    -0.04900
N2224       N  0.53099162  0.54070301  0.55996148    -0.60500
C2225       C  0.99839113  0.00553108  0.57520136     0.96200
C2226       C  0.91359946  0.57935866  0.00807247     0.96000
N2227       N  0.56118034  0.60984841  0.94034636    -0.06100
N2228       N  0.57219335  0.64520500  0.92510515    -0.58600
N2229       N  0.60265651  0.57742593  0.99073534    -0.04200
N2230       N  0.64029454  0.59283815  0.50579273    -0.59900
N2231       N  0.61104774  0.56823365  0.96666690    -0.06200
N2232       N  0.65330482  0.57570434  0.96518960    -0.58900
N2233       N  0.55114275  0.61749262  0.96439748    -0.03900
N2234       N  0.55375426  0.65697781  0.96564417    -0.60000
Mn2235     Mn  0.53603819  0.57358829  0.49898737     1.18400
C2236       C  0.56664788  0.67398941  0.94124729     0.98300
C2237       C  0.67129444  0.59083576  0.48947184     0.99000
N2238       N  0.88422159  0.94629276  0.96313081    -0.06200
N2239       N  0.84289026  0.94116255  0.96386106    -0.62500
N2240       N  0.94293032  0.89504189  0.96658037    -0.05000
N2241       N  0.93918930  0.85501490  0.96565770    -0.63200
N2242       N  0.93206466  0.90293144  0.99032110    -0.05700
N2243       N  0.91954864  0.86743287  0.50574083    -0.62700
N2244       N  0.89255670  0.93598249  0.93932696    -0.04600
N2245       N  0.85570105  0.92218498  0.92378396    -0.63400
Mn2246     Mn  0.92984385  0.96517954  0.99819005     1.10700
C2247       C  0.82513291  0.92624994  0.93944794     0.99500
C2248       C  0.92475644  0.83810899  0.98997855     0.99600
N2249       N  0.56666276  0.98562743  0.92750695    -0.05700
N2250       N  0.60358794  0.98192798  0.92676658    -0.61100
N2251       N  0.97900460  0.98305485  0.89563051    -0.05000
N2252       N  0.96466339  0.96886392  0.87086528    -0.57800
N2253       N  0.51843372  0.52389894  0.89565020    -0.06300
N2254       N  0.53117783  0.53750112  0.87085170    -0.60600
N2255       N  0.52761697  0.94473601  0.92759710    -0.05300
N2256       N  0.53706173  0.91205617  0.92683946    -0.57800
Mn2257     Mn  0.56471838  0.54812362  0.93217093     1.20200
Mn2258     Mn  0.95930349  0.93888572  0.93192361     1.10100
Cl2259     Cl  0.99746825  0.50644741  0.96530685    -0.85800
C2260       C  0.58444974  0.93592073  0.92595304     0.96600
C2261       C  0.49702849  0.50330311  0.85527042     0.96300
N2262       N  0.97673634  0.98211014  0.78455050    -0.05900
N2263       N  0.96333449  0.96831648  0.80926441    -0.58100
N2264       N  0.97817271  0.56839073  0.75407936    -0.05600
N2265       N  0.97347255  0.60408389  0.75612940    -0.60200
N2266       N  0.93688068  0.52963219  0.75408338    -0.05200
N2267       N  0.90313084  0.53789451  0.75601568    -0.58000
N2268       N  0.51813314  0.52100938  0.78477830    -0.04900
N2269       N  0.53300258  0.53378294  0.80959316    -0.60500
C2270       C  0.99895415  0.00041406  0.82500439     0.96200
C2271       C  0.92657155  0.58428188  0.75790429     0.96000
N2272       N  0.57440266  0.60586819  0.69159863    -0.06100
N2273       N  0.59534314  0.64430949  0.67771237    -0.58600
N2274       N  0.60425058  0.56277118  0.74129582    -0.04200
N2275       N  0.64113276  0.57610310  0.75657783    -0.59900
N2276       N  0.61167717  0.55210025  0.71735259    -0.06200
N2277       N  0.65291947  0.55690378  0.71627371    -0.58900
N2278       N  0.56557552  0.61449715  0.71574048    -0.03900
N2279       N  0.57978430  0.65820383  0.71859380    -0.60000
Mn2280     Mn  0.54221565  0.56694428  0.74917068     1.18400
C2281       C  0.59800734  0.67638492  0.69498633     0.98300
C2282       C  0.67104615  0.57167360  0.74070110     0.99000
N2283       N  0.88256560  0.94676658  0.71483387    -0.06200
N2284       N  0.84020754  0.93891772  0.71762722    -0.62500
N2285       N  0.93271653  0.88857102  0.71487092    -0.05000
N2286       N  0.92464694  0.84675130  0.71287919    -0.63200
N2287       N  0.92543844  0.89738593  0.73931491    -0.05700
N2288       N  0.91124670  0.86090061  0.75422792    -0.62700
N2289       N  0.88925385  0.93755283  0.69035556    -0.04600
N2290       N  0.85050801  0.92213283  0.67628083    -0.63400
Mn2291     Mn  0.93018409  0.96302671  0.74848661     1.10700
C2292       C  0.82062175  0.92390136  0.69366222     0.99500
C2293       C  0.91157657  0.82994720  0.73731998     0.99600
N2294       N  0.55744708  0.97022022  0.67596391    -0.05700
N2295       N  0.58969606  0.95976433  0.67379413    -0.61100
N2296       N  0.97748680  0.98301536  0.64566261    -0.05000
N2297       N  0.96242118  0.97218367  0.62072447    -0.57800
N2298       N  0.51973720  0.52111162  0.64621574    -0.06300
N2299       N  0.53321087  0.53633939  0.62170939    -0.60600
N2300       N  0.51536198  0.93256241  0.67511876    -0.05300
N2301       N  0.51793064  0.89569391  0.67238085    -0.57800
Mn2302     Mn  0.56627722  0.53820010  0.68244983     1.20200
Mn2303     Mn  0.95260238  0.93533749  0.68107536     1.10100
Cl2304     Cl  0.99777224  0.50103836  0.71516827    -0.85800
C2305       C  0.56440092  0.91326183  0.67093873     0.96600
C2306       C  0.49702178  0.50602020  0.60566361     0.96300
C2307       C  0.65369520  0.83787877  0.90571987     0.30200
C2308       C  0.65169145  0.84443122  0.95925239     0.30200
C2309       C  0.63670871  0.86903271  0.91727147    -0.06000
C2310       C  0.62349792  0.79234456  0.92013195    -0.06800
C2311       C  0.70225442  0.86070756  0.91929188    -0.06700
C2312       C  0.63592755  0.87241198  0.94463118    -0.06000
C2313       C  0.62260032  0.79634879  0.94711662    -0.06800
C2314       C  0.70027671  0.86348250  0.94666797    -0.06700
C2315       C  0.62081960  0.90172511  0.95082946    -0.32100
N2316       N  0.61097772  0.91483544  0.92810096     0.14400
C2317       C  0.62180315  0.89647932  0.90758467    -0.32100
H2318       H  0.61779481  0.90204888  0.88714967     0.16400
C2319       C  0.59979637  0.75304761  0.95712441    -0.31000
N2320       N  0.58744911  0.72220204  0.93697813     0.13200
C2321       C  0.60188815  0.74563544  0.91405687    -0.31000
C2322       C  0.74520539  0.88963695  0.95583277    -0.31300
N2323       N  0.77527457  0.90130231  0.93541753     0.13700
H2324       H  0.75552609  0.90024091  0.97614672     0.16300
C2325       C  0.74975519  0.88524322  0.91273870    -0.31300
H2326       H  0.76462996  0.89294235  0.89320331     0.16300
H2327       H  0.59908674  0.73026159  0.89477521     0.16300
H2328       H  0.61619122  0.91199123  0.97027998     0.16400
H2329       H  0.59526143  0.74475947  0.97784545     0.16300
C2330       C  0.65451103  0.83551175  0.65708211     0.30200
C2331       C  0.64666899  0.84202095  0.71003826     0.30200
C2332       C  0.61953016  0.84816129  0.66654877    -0.06000
C2333       C  0.64178632  0.79192969  0.67237621    -0.06800
C2334       C  0.70038843  0.87237868  0.67140143    -0.06700
C2335       C  0.61553954  0.85128502  0.69345105    -0.06000
C2336       C  0.63832410  0.79600872  0.69940425    -0.06800
C2337       C  0.69606512  0.87609551  0.69878077    -0.06700
C2338       C  0.59394815  0.87527756  0.69806321    -0.32100
N2339       N  0.58384577  0.88573866  0.67453594     0.14400
C2340       C  0.59998434  0.87019464  0.65512160    -0.32100
H2341       H  0.60059870  0.87738803  0.63440713     0.16400
C2342       C  0.62749011  0.75526686  0.71016529    -0.31000
N2343       N  0.62080412  0.72498048  0.69054690     0.13200
C2344       C  0.63133890  0.74738782  0.66728959    -0.31000
C2345       C  0.74031590  0.89445023  0.70919195    -0.31300
N2346       N  0.77132062  0.90363442  0.68951652     0.13700
H2347       H  0.74891578  0.89721634  0.72990517     0.16300
C2348       C  0.74719503  0.88812919  0.66660820    -0.31300
H2349       H  0.76199246  0.88562244  0.64811767     0.16300
H2350       H  0.62976327  0.73197670  0.64824180     0.16300
H2351       H  0.58905288  0.88715134  0.71703502     0.16400
H2352       H  0.62326969  0.74750068  0.73090769     0.16300
C2353       C  0.60212894  0.80415642  0.77972322    -0.11700
C2354       C  0.63804188  0.84112686  0.79399441     0.10900
C2355       C  0.67031175  0.88260145  0.78151546    -0.03500
C2356       C  0.66944789  0.88306446  0.75401332    -0.06200
C2357       C  0.63763737  0.84337072  0.73922479    -0.17000
C2358       C  0.59870648  0.80601400  0.75255825     0.01900
C2359       C  0.63942606  0.83569897  0.82222828     0.11900
C2360       C  0.70554386  0.92556005  0.79713965     0.62500
H2361       H  0.69418102  0.91434405  0.74396453     0.11900
C2362       C  0.55226010  0.76799537  0.74050742     0.54600
H2363       H  0.57589757  0.77366822  0.79005225     0.07700
C2364       C  0.60519795  0.83399568  0.83899692    -0.06100
C2365       C  0.60804614  0.82716986  0.86556095    -0.06900
C2366       C  0.64780533  0.83011327  0.87622164    -0.16400
C2367       C  0.67630429  0.82230226  0.85897579    -0.02000
C2368       C  0.67293009  0.82755151  0.83195931    -0.09600
C2369       C  0.56683185  0.84080515  0.82937503     0.64700
H2370       H  0.58003565  0.82197955  0.87847868     0.10100
C2371       C  0.70526694  0.80254285  0.86678762     0.63100
H2372       H  0.69557482  0.82387926  0.81822415     0.07500
F2373       F  0.51635218  0.77010110  0.75228771    -0.20000
F2374       F  0.54499680  0.72522697  0.74561049    -0.16200
F2375       F  0.54870889  0.77113977  0.71374502    -0.19700
F2376       F  0.73720211  0.91824219  0.80944084    -0.23100
F2377       F  0.68266229  0.93596145  0.81604236    -0.24500
F2378       F  0.73030043  0.96341406  0.78114104    -0.18500
F2379       F  0.69143233  0.76325093  0.85165722    -0.21000
F2380       F  0.69971083  0.78982601  0.89281184    -0.22200
F2381       F  0.75210030  0.83403300  0.86184466    -0.19400
F2382       F  0.54536460  0.84918113  0.85016557    -0.19400
F2383       F  0.53295387  0.80181280  0.81588196    -0.23300
F2384       F  0.58535820  0.87819137  0.81292816    -0.24900
C2385       C  0.62225238  0.84496713  0.53256800    -0.11700
C2386       C  0.65671634  0.83982897  0.54374973     0.10900
C2387       C  0.68360108  0.82857995  0.52793561    -0.03500
C2388       C  0.68040655  0.83068535  0.00074060    -0.06200
C2389       C  0.65025516  0.84216621  0.98908002    -0.17000
C2390       C  0.61481232  0.84052163  0.50535987     0.01900
C2391       C  0.65824077  0.83889147  0.57229905     0.11900
C2392       C  0.71332473  0.81214256  0.53965064     0.62500
H2393       H  0.70025239  0.82129645  0.98831385     0.11900
C2394       C  0.56572521  0.82625920  0.99677441     0.54600
H2395       H  0.59791839  0.84759837  0.54544030     0.07700
C2396       C  0.68991717  0.87822365  0.58719931    -0.06100
C2397       C  0.68885004  0.87435230  0.61450584    -0.06900
C2398       C  0.65500412  0.83358559  0.62730848    -0.16400
C2399       C  0.61815609  0.79705082  0.61177895    -0.02000
C2400       C  0.62344065  0.79895794  0.58446657    -0.09600
C2401       C  0.72168882  0.92479944  0.57448910     0.64700
H2402       H  0.71216766  0.90500792  0.62595933     0.10100
C2403       C  0.57066851  0.75746310  0.62135268     0.63100
H2404       H  0.59756462  0.77037733  0.57222637     0.07500
F2405       F  0.55844162  0.86151479  0.00233643    -0.20000
F2406       F  0.53350558  0.78820876  0.01102873    -0.16200
F2407       F  0.55625713  0.81361029  0.97054104    -0.19700
F2408       F  0.68503535  0.77264211  0.55383647    -0.23100
F2409       F  0.74708646  0.84554257  0.55628862    -0.24500
F2410       F  0.73582104  0.80192161  0.52035392    -0.18500
F2411       F  0.53557097  0.75617795  0.60680187    -0.21000
F2412       F  0.56094957  0.76088471  0.64739167    -0.22200
F2413       F  0.56775666  0.71611086  0.61716890    -0.19400
F2414       F  0.75124534  0.95832013  0.59268762    -0.19400
F2415       F  0.69442579  0.93880452  0.56315649    -0.23300
F2416       F  0.74915780  0.92198990  0.55517091    -0.24900
C2417       C  0.81990452  0.63148862  0.84791412    -0.11700
C2418       C  0.85134566  0.67373694  0.85990316     0.10900
C2419       C  0.88128053  0.71275513  0.84504226    -0.03500
C2420       C  0.87661967  0.70826631  0.81780500    -0.06200
C2421       C  0.84175286  0.66710607  0.80518776    -0.17000
C2422       C  0.81578613  0.62634574  0.82061276     0.01900
C2423       C  0.85191891  0.67549913  0.88834173     0.11900
C2424       C  0.91830286  0.75853918  0.85778187     0.62500
H2425       H  0.90287473  0.73646622  0.80638073     0.11900
C2426       C  0.78486290  0.57631936  0.81089403     0.54600
H2427       H  0.79895143  0.60176451  0.86025461     0.07700
C2428       C  0.81863339  0.68010361  0.90232528    -0.06100
C2429       C  0.82024652  0.68005082  0.92958269    -0.06900
C2430       C  0.85155541  0.67218918  0.94301018    -0.16400
C2431       C  0.89065417  0.67740246  0.92871313    -0.02000
C2432       C  0.88731034  0.67416909  0.90130559    -0.09600
C2433       C  0.78129810  0.68431736  0.88858231     0.64700
H2434       H  0.79727084  0.68717738  0.94054830     0.10100
C2435       C  0.93862021  0.69218416  0.93977150     0.63100
H2436       H  0.91427650  0.67370470  0.88979999     0.07500
F2437       F  0.73859605  0.56062121  0.81647571    -0.20000
F2438       F  0.79667714  0.54921633  0.82425874    -0.16200
F2439       F  0.78886230  0.56908761  0.78450631    -0.19700
F2440       F  0.95215567  0.75401166  0.86967315    -0.23100
F2441       F  0.89810092  0.77228110  0.87656954    -0.24500
F2442       F  0.94022813  0.79319554  0.83948641    -0.18500
F2443       F  0.94749423  0.65776519  0.93508602    -0.21000
F2444       F  0.94406321  0.70342296  0.96626573    -0.22200
F2445       F  0.97249895  0.73122933  0.92685271    -0.19400
F2446       F  0.75441251  0.69157103  0.90634147    -0.19400
F2447       F  0.75160530  0.64418786  0.87447179    -0.23300
F2448       F  0.80195258  0.72089887  0.87152553    -0.24900
C2449       C  0.81073926  0.62616987  0.59579201    -0.11700
C2450       C  0.84267051  0.66587096  0.60976503     0.10900
C2451       C  0.87250871  0.70761191  0.59705045    -0.03500
C2452       C  0.86927313  0.70786312  0.56987084    -0.06200
C2453       C  0.83576062  0.66884637  0.55520926    -0.17000
C2454       C  0.80682560  0.62594261  0.56851144     0.01500
C2455       C  0.84261936  0.66303818  0.63808615     0.11900
C2456       C  0.90825747  0.75155567  0.61191627     0.62500
H2457       H  0.89617262  0.73797629  0.56019122     0.11900
C2458       C  0.77311212  0.57783834  0.55656064     0.54600
H2459       H  0.78897372  0.59452982  0.60652153     0.07700
C2460       C  0.80899797  0.66563292  0.65308670    -0.06100
C2461       C  0.81285305  0.66630359  0.68024246    -0.06900
C2462       C  0.84766710  0.66241870  0.69263645    -0.16400
C2463       C  0.88646933  0.66988656  0.67719990    -0.02000
C2464       C  0.88017184  0.66399808  0.64998849    -0.09600
C2465       C  0.76988481  0.66845461  0.64051860     0.64700
H2466       H  0.78915560  0.67135001  0.69203879     0.10100
C2467       C  0.93686872  0.69209496  0.68670769     0.63100
H2468       H  0.90740033  0.66551804  0.63770785     0.07500
F2469       F  0.72797802  0.56304538  0.56448586    -0.20000
F2470       F  0.78441080  0.54755124  0.56609031    -0.16200
F2471       F  0.77337849  0.57406491  0.52955702    -0.19700
F2472       F  0.94334056  0.74686594  0.62177325    -0.23100
F2473       F  0.88694701  0.76046545  0.63250587    -0.24500
F2474       F  0.92890431  0.78953469  0.59580036    -0.18500
F2475       F  0.95109524  0.66130814  0.68383784    -0.21000
F2476       F  0.94389532  0.70827664  0.71239218    -0.22200
F2477       F  0.96579415  0.72989628  0.67137122    -0.19400
F2478       F  0.74303065  0.67400134  0.65916528    -0.19400
F2479       F  0.74048094  0.62838035  0.62628984    -0.23300
F2480       F  0.78856714  0.70551109  0.62381884    -0.24900
loop_ 
_geom_bond_atom_site_label_1 
_geom_bond_atom_site_label_2 
_geom_bond_distance 
_geom_bond_site_symmetry_2 
_ccdc_geom_bond_type 
C1            C3   1.544       .  S
C1            C5   1.558       .  S
C1            C4   1.535       .  S
C1          C283   1.503       .  S
C2            C6   1.522       .  S
C2            C8   1.521       .  S
C2            C7   1.548       .  S
C2          C260   1.508       .  S
C3           C11   1.379       .  A
C3          C316   1.382   1_554  A
C4           C15   1.389       .  A
C4          C317   1.386   1_554  A
C5           C19   1.401       .  A
C5          C318   1.386   1_554  A
C6            C9   1.378       .  A
C6          C313   1.382       .  A
C7           C13   1.371       .  A
C7          C314   1.386       .  A
C8           C16   1.362       .  A
C8          C315   1.386       .  A
C9           N10   1.354       .  A
C9           H22   1.080       .  S
N10         C321   1.353       .  A
N10          C56   1.425       .  S
C11         N320   1.353       .  A
C11          H12   1.083       .  S
C13         N324   1.355       .  A
C13          H23   1.083       .  S
N14          C15   1.357   1_556  A
N14         C323   1.355       .  A
N14          C67   1.433       .  S
C15          H21   1.082       .  S
C16         N327   1.347       .  A
C16          H18   1.083       .  S
N17          C19   1.359   1_556  A
N17         C326   1.347       .  A
N17         C388   1.431       .  S
C19          H20   1.082       .  S
C24          C26   1.542       .  S
C24          C28   1.557       .  S
C24          C27   1.547       .  S
C24         C251   1.507       .  S
C25          C29   1.522       .  S
C25          C31   1.521       .  S
C25          C30   1.540       .  S
C25         C292   1.505       .  S
C26          C34   1.378       .  A
C26          C29   1.384       .  A
C27          C38   1.392       .  A
C27          C30   1.387       .  A
C28          C42   1.399       .  A
C28          C31   1.382       .  A
C29          C32   1.376       .  A
C30          C36   1.369       .  A
C31          C39   1.363       .  A
C32          N33   1.353       .  A
C32          H45   1.080       .  S
N33          C34   1.353       .  A
N33         C101   1.422       .  S
C34          H35   1.083       .  S
C36          N37   1.352       .  A
C36          H46   1.082       .  S
N37          C38   1.362       .  A
N37         C112   1.436       .  S
C38          H44   1.081       .  S
C39          N40   1.349       .  A
C39          H41   1.083       .  S
N40          C42   1.361       .  A
N40         C123   1.433       .  S
C42          H43   1.082       .  S
N47          N48   1.336       .  A
N47        N1913   1.321       .  A
N47        Mn386   2.277   1_554  S
N48          C55   1.365       .  A
N49          N51   1.313       .  A
N49          N50   1.320       .  A
N49       Mn1615   2.200       .  S
N50          C56   1.352       .  A
N51          N52   1.321       .  A
N51        Mn696   2.192   1_545  S
N52          C56   1.351       .  A
N53          N54   1.338       .  A
N53        N1907   1.321   1_445  A
N53         Mn65   2.283   1_554  S
N54        C1915   1.367   1_455  A
C55        N1914   1.367       .  A
C55        C1996   1.546       .  S
N57          N63   1.322       .  A
N57          N58   1.328       .  A
N57         Mn87   2.218       .  S
N58          C66   1.358       .  A
N59          N61   1.321       .  A
N59         N370   1.328       .  A
N59        Mn375   2.222       .  S
N60          C67   1.359   1_554  A
N60         N369   1.328   1_554  A
N61          N62   1.312       .  A
N61         Mn87   2.200       .  S
N62         C377   1.344       .  A
N63          N64   1.312       .  A
N63        Mn375   2.211       .  S
N64          C66   1.346       .  A
Mn65       N1599   2.200   1_456  S
Mn65        N369   2.222       .  S
Mn65        N373   2.211       .  S
Mn65      Cl1639   2.568   1_455  S
C66         N150   1.432       .  S
C67         N372   1.344       .  A
N68          N69   1.312       .  A
N68          N74   1.321       .  A
N68         Mn76   2.214       .  S
N69          C77   1.347       .  A
N70          N72   1.320       .  A
N70          N71   1.312       .  A
N70         Mn88   2.207       .  S
N71          C78   1.347       .  A
N72         N383   1.327       .  A
N72         Mn76   2.208       .  S
N73         C388   1.356   1_554  A
N73         N382   1.327   1_554  A
N74          N75   1.331       .  A
N74         Mn88   2.234       .  S
N75          C77   1.361       .  A
Mn76        N357   2.277       .  S
Mn76        N671   2.192       .  S
Mn76       Cl709   2.564       .  S
C77         N153   1.439       .  S
C78         N383   1.356       .  A
C78         N327   1.431       .  S
N79          N80   1.322       .  A
N79          N85   1.315       .  A
N79        Mn707   2.191       .  S
N80          C90   1.349       .  A
N81          N82   1.336       .  A
N81        N1943   1.320       .  A
N81         Mn88   2.270       .  S
N82        C1951   1.363       .  A
N83          N84   1.336       .  A
N83        N1941   1.320   1_445  A
N83         Mn87   2.275       .  S
N84          C91   1.365   1_455  A
N85          N86   1.322       .  A
N85       Mn1328   2.219   1_455  S
N86          C90   1.355       .  A
Mn87        N699   2.191   1_545  S
Mn87      Cl1329   2.566   1_455  S
Mn88       N1325   2.219       .  S
Mn88       Cl709   2.566       .  S
Cl89      Mn1615   2.568       .  S
Cl89       Mn696   2.564   1_545  S
Cl89      Mn1327   2.566       .  S
Cl89       Mn708   2.566   1_545  S
C90         N146   1.430       .  S
C91        N1942   1.363   1_545  A
C91        C1960   1.540       .  S
N92          N93   1.337       .  A
N92        N1958   1.319       .  A
N92        Mn121   2.271       .  S
N93         C100   1.365       .  A
N94          N96   1.315       .  A
N94          N95   1.321       .  A
N94       Mn1350   2.205       .  S
N95         C101   1.353       .  A
N96          N97   1.318       .  A
N96        Mn741   2.188   1_545  S
N97         C101   1.349       .  A
N98          N99   1.335       .  A
N98        N1952   1.319   1_445  A
N98        Mn110   2.266       .  S
N99        C1960   1.363   1_455  A
C100       N1959   1.363       .  A
C100       C1951   1.540       .  S
N102        N108   1.323       .  A
N102        N103   1.331       .  A
N102       Mn132   2.229       .  S
N103        C111   1.358       .  A
N104        N105   1.326       .  A
N104        N106   1.322       .  A
N104       Mn110   2.211       .  S
N105        C112   1.356       .  A
N106        N107   1.315       .  A
N106       Mn132   2.226       .  S
N107        C112   1.351       .  A
N108        N109   1.314       .  A
N108       Mn110   2.209       .  S
N109        C111   1.345       .  A
Mn110      N1334   2.205   1_455  S
Mn110     Cl1374   2.569   1_455  S
C111        N173   1.438       .  S
N113        N114   1.315       .  A
N113        N119   1.322       .  A
N113       Mn121   2.208       .  S
N114        C122   1.344       .  A
N115        N117   1.322       .  A
N115        N116   1.313       .  A
N115       Mn133   2.217       .  S
N116        C123   1.346       .  A
N117        N118   1.328       .  A
N117       Mn121   2.213       .  S
N118        C123   1.357       .  A
N119        N120   1.329       .  A
N119       Mn133   2.230       .  S
N120        C122   1.360       .  A
Mn121       N716   2.188       .  S
Mn121      Cl754   2.570       .  S
C122        N176   1.437       .  S
N124        N125   1.322       .  A
N124        N130   1.314       .  A
N124       Mn752   2.208       .  S
N125        C135   1.354       .  A
N126        N127   1.337       .  A
N126       N1988   1.323       .  A
N126       Mn133   2.289       .  S
N127       C1996   1.366       .  A
N128        N129   1.337       .  A
N128       N1986   1.323   1_445  A
N128       Mn132   2.286       .  S
N129        C136   1.365   1_455  A
N130        N131   1.320       .  A
N130      Mn1373   2.193   1_455  S
N131        C135   1.350       .  A
Mn132       N744   2.208   1_545  S
Mn132     Cl1374   2.568   1_455  S
Mn133      N1370   2.193       .  S
Mn133      Cl754   2.571       .  S
Cl134     Mn1350   2.569       .  S
Cl134      Mn741   2.570   1_545  S
Cl134     Mn1372   2.568       .  S
Cl134      Mn753   2.571   1_545  S
C135        N169   1.428       .  S
C136       N1987   1.366   1_545  A
C136       C1915   1.546       .  S
C137        C139   1.564       .  S
C137        C141   1.551       .  S
C137        C140   1.532       .  S
C137        C196   1.511       .  S
C138        C142   1.533       .  S
C138        C144   1.543       .  S
C138        C143   1.518       .  S
C138        C219   1.516       .  S
C139        C147   1.386       .  A
C139        C142   1.392       .  A
C140        C151   1.390       .  A
C140        C143   1.375       .  A
C141        C155   1.397       .  A
C141        C144   1.394       .  A
C142        C145   1.382       .  A
C143        C149   1.364       .  A
C144        C152   1.366       .  A
C145        N146   1.355       .  A
C145        H158   1.079       .  S
N146        C147   1.352       .  A
C147        H148   1.081       .  S
C149        N150   1.353       .  A
C149        H159   1.083       .  S
N150        C151   1.359       .  A
C151        H157   1.082       .  S
C152        N153   1.352       .  A
C152        H154   1.082       .  S
N153        C155   1.362       .  A
C155        H156   1.079       .  S
C160        C162   1.533       .  S
C160        C164   1.555       .  S
C160        C163   1.544       .  S
C160        C228   1.511       .  S
C161        C165   1.519       .  S
C161        C167   1.550       .  S
C161        C166   1.536       .  S
C161        C187   1.514       .  S
C162        C170   1.382       .  A
C162        C165   1.378       .  A
C163        C174   1.393       .  A
C163        C166   1.386       .  A
C164        C178   1.392       .  A
C164        C167   1.406       .  A
C165        C168   1.379       .  A
C166        C172   1.368       .  A
C167        C175   1.381       .  A
C168        N169   1.353       .  A
C168        H181   1.083       .  S
N169        C170   1.354       .  A
C170        H171   1.082       .  S
C172        N173   1.354       .  A
C172        H182   1.081       .  S
N173        C174   1.360       .  A
C174        H180   1.080       .  S
C175        N176   1.354       .  A
C175        H177   1.082       .  S
N176        C178   1.352       .  A
C178        H179   1.082       .  S
C183        C184   1.392       .  A
C183        C188   1.390       .  A
C183        H193   1.085       .  S
C184        C185   1.407       .  A
C184        C189   1.453       .  S
C185        C190   1.520       .  S
C185        C186   1.397       .  A
C186        C187   1.407       .  A
C186        H191   1.080       .  S
C187        C188   1.431       .  A
C188        C192   1.528       .  S
C189        C194   1.406       .  A
C189        C198   1.402       .  A
C190        F206   1.382       .  S
C190        F207   1.383       .  S
C190        F208   1.384       .  S
C192        F203   1.384       .  S
C192        F204   1.384       .  S
C192        F205   1.376       .  S
C194        C199   1.524       .  S
C194        C195   1.386       .  A
C195        C196   1.407       .  A
C195        H200   1.082       .  S
C196        C197   1.420       .  A
C197        C201   1.520       .  S
C197        C198   1.400       .  A
C198        H202   1.085       .  S
C199        F212   1.385       .  S
C199        F213   1.381       .  S
C199        F214   1.383       .  S
C201        F209   1.384       .  S
C201        F210   1.379       .  S
C201        F211   1.382       .  S
C215        C216   1.397       .  A
C215        C220   1.396       .  A
C215        H225   1.086       .  S
C216        C217   1.403       .  A
C216        C221   1.452       .  S
C217        C222   1.523       .  S
C217        C528   1.392       .  A
C218        C219   1.414       .  A
C218        C527   1.392       .  A
C218        H223   1.080       .  S
C219        C530   1.425       .  A
C220        C534   1.523   1_554  S
C220        C529   1.425   1_554  A
C221        C226   1.402       .  A
C221        C230   1.393       .  A
C222        F238   1.383       .  S
C222        F239   1.381       .  S
C222        F240   1.385       .  S
C224        C530   1.523       .  S
C224        F235   1.383       .  S
C224        F236   1.385       .  S
C224        F237   1.378       .  S
C226        C231   1.523       .  S
C226        C227   1.393       .  A
C227        C228   1.414       .  A
C227        H232   1.078       .  S
C228        C229   1.432       .  A
C229        C233   1.529       .  S
C229        C230   1.394       .  A
C230        H234   1.086       .  S
C231        F244   1.385       .  S
C231        F245   1.383       .  S
C231        F246   1.381       .  S
C233        F241   1.385       .  S
C233        F242   1.376       .  S
C233        F243   1.383       .  S
C247        C248   1.389       .  A
C247        C252   1.392       .  A
C247        H257   1.086       .  S
C248        C249   1.402       .  A
C248        C253   1.443       .  S
C249        C254   1.524       .  S
C249        C250   1.388       .  A
C250        C251   1.410       .  A
C250        H255   1.075       .  S
C251        C252   1.435       .  A
C252        C256   1.529       .  S
C253        C258   1.402       .  A
C253        C262   1.394       .  A
C254        F270   1.382       .  S
C254        F271   1.383       .  S
C254        F272   1.385       .  S
C256        F267   1.383       .  S
C256        F268   1.385       .  S
C256        F269   1.375       .  S
C258        C263   1.524       .  S
C258        C259   1.385       .  A
C259        C260   1.410       .  A
C259        H264   1.078       .  S
C260        C261   1.428       .  A
C261        C265   1.526       .  S
C261        C262   1.394       .  A
C262        H266   1.085       .  S
C263        F276   1.385       .  S
C263        F277   1.382       .  S
C263        F278   1.382       .  S
C265        F273   1.383       .  S
C265        F274   1.377       .  S
C265        F275   1.385       .  S
C279        C280   1.387       .  A
C279        C284   1.391       .  A
C279        H289   1.086       .  S
C280        C281   1.403       .  A
C280        C285   1.442       .  S
C281        C286   1.524       .  S
C281        C282   1.385       .  A
C282        C283   1.407       .  A
C282        H287   1.069       .  S
C283        C284   1.439       .  A
C284        C288   1.533       .  S
C285        C290   1.403       .  A
C285        C294   1.396       .  A
C286        F302   1.380       .  S
C286        F303   1.383       .  S
C286        F304   1.385       .  S
C288        F299   1.384       .  S
C288        F300   1.384       .  S
C288        F301   1.374       .  S
C290        C295   1.525       .  S
C290        C291   1.384       .  A
C291        C292   1.410       .  A
C291        H296   1.080       .  S
C292        C293   1.424       .  A
C293        C297   1.526       .  S
C293        C294   1.393       .  A
C294        H298   1.085       .  S
C295        F308   1.384       .  S
C295        F309   1.382       .  S
C295        F310   1.383       .  S
C297        F305   1.382       .  S
C297        F306   1.377       .  S
C297        F307   1.384       .  S
C311        C313   1.544       .  S
C311        C315   1.558       .  S
C311        C314   1.535       .  S
C311        C593   1.503       .  S
C312        C316   1.522       .  S
C312        C318   1.521       .  S
C312        C317   1.548       .  S
C312        C570   1.508       .  S
C313        C321   1.379       .  A
C314        C325   1.389       .  A
C315        C329   1.401       .  A
C316        C319   1.378       .  A
C317        C323   1.371       .  A
C318        C326   1.362       .  A
C319        N320   1.354   1_556  A
C319        H332   1.080       .  S
N320        C366   1.425       .  S
C321        H322   1.083       .  S
C323        H333   1.083       .  S
N324        C325   1.358       .  A
N324        C377   1.433       .  S
C325        H331   1.082       .  S
C326        H328   1.083       .  S
N327        C329   1.359       .  A
C329        H330   1.082       .  S
C334        C336   1.542       .  S
C334        C338   1.557       .  S
C334        C337   1.547       .  S
C334        C561   1.507       .  S
C335        C339   1.522       .  S
C335        C341   1.521       .  S
C335        C340   1.540       .  S
C335        C602   1.505       .  S
C336        C344   1.378       .  A
C336        C339   1.384       .  A
C337        C348   1.392       .  A
C337        C340   1.387       .  A
C338        C352   1.399       .  A
C338        C341   1.382       .  A
C339        C342   1.376       .  A
C340        C346   1.369       .  A
C341        C349   1.363       .  A
C342        N343   1.353       .  A
C342        H355   1.080       .  S
N343        C344   1.353       .  A
N343        C411   1.422       .  S
C344        H345   1.083       .  S
C346        N347   1.352       .  A
C346        H356   1.082       .  S
N347        C348   1.362       .  A
N347        C422   1.436       .  S
C348        H354   1.081       .  S
C349        N350   1.349       .  A
C349        H351   1.083       .  S
N350        C352   1.361       .  A
N350        C433   1.433       .  S
C352        H353   1.082       .  S
N357        N358   1.336       .  A
N357       N2223   1.321       .  A
N358        C365   1.365       .  A
N359        N361   1.313       .  A
N359        N360   1.320       .  A
N359      Mn1305   2.200   1_554  S
N360        C366   1.352       .  A
N361        N362   1.321       .  A
N361      Mn1006   2.192   1_544  S
N362        C366   1.351       .  A
N363       N2217   1.321   1_445  A
N363        N364   1.338       .  A
N363       Mn375   2.283       .  S
N364       C2225   1.367   1_455  A
C365       N2224   1.367       .  A
C365       C2306   1.546       .  S
N367        N373   1.322       .  A
N367        N368   1.328       .  A
N367       Mn397   2.218       .  S
N368        C376   1.358       .  A
N369        N371   1.321       .  A
N370        C377   1.359       .  A
N371        N372   1.312       .  A
N371       Mn397   2.200       .  S
N373        N374   1.312       .  A
N374        C376   1.346       .  A
Mn375      N1289   2.200   1_455  S
Mn375     Cl1329   2.568   1_455  S
C376        N460   1.432       .  S
N378        N379   1.312       .  A
N378        N384   1.321       .  A
N378       Mn386   2.214       .  S
N379        C387   1.347       .  A
N380        N382   1.320       .  A
N380        N381   1.312       .  A
N380       Mn398   2.207       .  S
N381        C388   1.347       .  A
N382       Mn386   2.208       .  S
N384        N385   1.331       .  A
N384       Mn398   2.234       .  S
N385        C387   1.361       .  A
Mn386       N981   2.192   1_556  S
Mn386     Cl1019   2.564       .  S
C387        N463   1.439       .  S
N389        N390   1.322       .  A
N389        N395   1.315       .  A
N389      Mn1017   2.191       .  S
N390        C400   1.349       .  A
N391        N392   1.336       .  A
N391       N2253   1.320       .  A
N391       Mn398   2.270       .  S
N392       C2261   1.363       .  A
N393       N2251   1.320   1_445  A
N393        N394   1.336       .  A
N393       Mn397   2.275       .  S
N394        C401   1.365   1_455  A
N395        N396   1.322       .  A
N395      Mn1638   2.219   1_455  S
N396        C400   1.355       .  A
Mn397      N1009   2.191   1_545  S
Mn397     Cl1639   2.566   1_455  S
Mn398      N1635   2.219       .  S
Mn398     Cl1019   2.566       .  S
Cl399     Mn1305   2.568       .  S
Cl399     Mn1006   2.564   1_545  S
Cl399     Mn1637   2.566       .  S
Cl399     Mn1018   2.566   1_545  S
C400        N456   1.430       .  S
C401       N2252   1.363   1_545  A
C401       C2270   1.540       .  S
N402        N403   1.337       .  A
N402       N2268   1.319       .  A
N402       Mn431   2.271       .  S
N403        C410   1.365       .  A
N404        N406   1.315       .  A
N404        N405   1.321       .  A
N404      Mn1660   2.205       .  S
N405        C411   1.353       .  A
N406        N407   1.318       .  A
N406      Mn1051   2.188   1_545  S
N407        C411   1.349       .  A
N408       N2262   1.319   1_445  A
N408        N409   1.335       .  A
N408       Mn420   2.266       .  S
N409       C2270   1.363   1_455  A
C410       N2269   1.363       .  A
C410       C2261   1.540       .  S
N412        N418   1.323       .  A
N412        N413   1.331       .  A
N412       Mn442   2.229       .  S
N413        C421   1.358       .  A
N414        N415   1.326       .  A
N414        N416   1.322       .  A
N414       Mn420   2.211       .  S
N415        C422   1.356       .  A
N416        N417   1.315       .  A
N416       Mn442   2.226       .  S
N417        C422   1.351       .  A
N418        N419   1.314       .  A
N418       Mn420   2.209       .  S
N419        C421   1.345       .  A
Mn420      N1644   2.205   1_455  S
Mn420     Cl1684   2.569   1_455  S
C421        N483   1.438       .  S
N423        N424   1.315       .  A
N423        N429   1.322       .  A
N423       Mn431   2.208       .  S
N424        C432   1.344       .  A
N425        N427   1.322       .  A
N425        N426   1.313       .  A
N425       Mn443   2.217       .  S
N426        C433   1.346       .  A
N427        N428   1.328       .  A
N427       Mn431   2.213       .  S
N428        C433   1.357       .  A
N429        N430   1.329       .  A
N429       Mn443   2.230       .  S
N430        C432   1.360       .  A
Mn431      N1026   2.188       .  S
Mn431     Cl1064   2.570       .  S
C432        N486   1.437       .  S
N434        N435   1.322       .  A
N434        N440   1.314       .  A
N434      Mn1062   2.208       .  S
N435        C445   1.354       .  A
N436        N437   1.337       .  A
N436       N2298   1.323       .  A
N436       Mn443   2.289       .  S
N437       C2306   1.366       .  A
N438       N2296   1.323   1_445  A
N438        N439   1.337       .  A
N438       Mn442   2.286       .  S
N439        C446   1.365   1_455  A
N440        N441   1.320       .  A
N440      Mn1683   2.193   1_455  S
N441        C445   1.350       .  A
Mn442      N1054   2.208   1_545  S
Mn442     Cl1684   2.568   1_455  S
Mn443      N1680   2.193       .  S
Mn443     Cl1064   2.571       .  S
Cl444     Mn1660   2.569       .  S
Cl444     Mn1051   2.570   1_545  S
Cl444     Mn1682   2.568       .  S
Cl444     Mn1063   2.571   1_545  S
C445        N479   1.428       .  S
C446       N2297   1.366   1_545  A
C446       C2225   1.546       .  S
C447        C449   1.564       .  S
C447        C451   1.551       .  S
C447        C450   1.532       .  S
C447        C506   1.511       .  S
C448        C452   1.533       .  S
C448        C454   1.543       .  S
C448        C453   1.518       .  S
C448        C529   1.516       .  S
C449        C457   1.386       .  A
C449        C452   1.392       .  A
C450        C461   1.390       .  A
C450        C453   1.375       .  A
C451        C465   1.397       .  A
C451        C454   1.394       .  A
C452        C455   1.382       .  A
C453        C459   1.364       .  A
C454        C462   1.366       .  A
C455        N456   1.355       .  A
C455        H468   1.079       .  S
N456        C457   1.352       .  A
C457        H458   1.081       .  S
C459        N460   1.353       .  A
C459        H469   1.083       .  S
N460        C461   1.359       .  A
C461        H467   1.082       .  S
C462        N463   1.352       .  A
C462        H464   1.082       .  S
N463        C465   1.362       .  A
C465        H466   1.079       .  S
C470        C472   1.533       .  S
C470        C474   1.555       .  S
C470        C473   1.544       .  S
C470        C538   1.511       .  S
C471        C475   1.519       .  S
C471        C477   1.550       .  S
C471        C476   1.536       .  S
C471        C497   1.514       .  S
C472        C480   1.382       .  A
C472        C475   1.378       .  A
C473        C484   1.393       .  A
C473        C476   1.386       .  A
C474        C488   1.392       .  A
C474        C477   1.406       .  A
C475        C478   1.379       .  A
C476        C482   1.368       .  A
C477        C485   1.381       .  A
C478        N479   1.353       .  A
C478        H491   1.083       .  S
N479        C480   1.354       .  A
C480        H481   1.082       .  S
C482        N483   1.354       .  A
C482        H492   1.081       .  S
N483        C484   1.360       .  A
C484        H490   1.080       .  S
C485        N486   1.354       .  A
C485        H487   1.082       .  S
N486        C488   1.352       .  A
C488        H489   1.082       .  S
C493        C494   1.392       .  A
C493        C498   1.390       .  A
C493        H503   1.085       .  S
C494        C495   1.407       .  A
C494        C499   1.453       .  S
C495        C500   1.520       .  S
C495        C496   1.397       .  A
C496        C497   1.407       .  A
C496        H501   1.080       .  S
C497        C498   1.431       .  A
C498        C502   1.528       .  S
C499        C504   1.406       .  A
C499        C508   1.402       .  A
C500        F516   1.382       .  S
C500        F517   1.383       .  S
C500        F518   1.384       .  S
C502        F513   1.384       .  S
C502        F514   1.384       .  S
C502        F515   1.376       .  S
C504        C509   1.524       .  S
C504        C505   1.386       .  A
C505        C506   1.407       .  A
C505        H510   1.082       .  S
C506        C507   1.420       .  A
C507        C511   1.520       .  S
C507        C508   1.400       .  A
C508        H512   1.085       .  S
C509        F522   1.385       .  S
C509        F523   1.381       .  S
C509        F524   1.383       .  S
C511        F519   1.384       .  S
C511        F520   1.379       .  S
C511        F521   1.382       .  S
C525        C526   1.397       .  A
C525        C530   1.396       .  A
C525        H535   1.086       .  S
C526        C527   1.403       .  A
C526        C531   1.452       .  S
C527        C532   1.523       .  S
C528        C529   1.414   1_554  A
C528        H533   1.080   1_554  S
C531        C536   1.402       .  A
C531        C540   1.393       .  A
C532        F548   1.383       .  S
C532        F549   1.381       .  S
C532        F550   1.385       .  S
C534        F545   1.383   1_556  S
C534        F546   1.385   1_556  S
C534        F547   1.378       .  S
C536        C541   1.523       .  S
C536        C537   1.393       .  A
C537        C538   1.414       .  A
C537        H542   1.078       .  S
C538        C539   1.432       .  A
C539        C543   1.529       .  S
C539        C540   1.394       .  A
C540        H544   1.086       .  S
C541        F554   1.385       .  S
C541        F555   1.383       .  S
C541        F556   1.381       .  S
C543        F551   1.385       .  S
C543        F552   1.376       .  S
C543        F553   1.383       .  S
C557        C558   1.389       .  A
C557        C562   1.392       .  A
C557        H567   1.086       .  S
C558        C559   1.402       .  A
C558        C563   1.443       .  S
C559        C564   1.524       .  S
C559        C560   1.388       .  A
C560        C561   1.410       .  A
C560        H565   1.075       .  S
C561        C562   1.435       .  A
C562        C566   1.529       .  S
C563        C568   1.402       .  A
C563        C572   1.394       .  A
C564        F580   1.382       .  S
C564        F581   1.383       .  S
C564        F582   1.385       .  S
C566        F577   1.383       .  S
C566        F578   1.385       .  S
C566        F579   1.375       .  S
C568        C573   1.524       .  S
C568        C569   1.385       .  A
C569        C570   1.410       .  A
C569        H574   1.078       .  S
C570        C571   1.428       .  A
C571        C575   1.526       .  S
C571        C572   1.394       .  A
C572        H576   1.085       .  S
C573        F586   1.385       .  S
C573        F587   1.382       .  S
C573        F588   1.382       .  S
C575        F583   1.383       .  S
C575        F584   1.377       .  S
C575        F585   1.385       .  S
C589        C590   1.387       .  A
C589        C594   1.391       .  A
C589        H599   1.086       .  S
C590        C591   1.403       .  A
C590        C595   1.442       .  S
C591        C596   1.524       .  S
C591        C592   1.385       .  A
C592        C593   1.407       .  A
C592        H597   1.069       .  S
C593        C594   1.439       .  A
C594        C598   1.533       .  S
C595        C600   1.403       .  A
C595        C604   1.396       .  A
C596        F612   1.380       .  S
C596        F613   1.383       .  S
C596        F614   1.385       .  S
C598        F609   1.384       .  S
C598        F610   1.384       .  S
C598        F611   1.374       .  S
C600        C605   1.525       .  S
C600        C601   1.384       .  A
C601        C602   1.410       .  A
C601        H606   1.080       .  S
C602        C603   1.424       .  A
C603        C607   1.526       .  S
C603        C604   1.393       .  A
C604        H608   1.085       .  S
C605        F618   1.384       .  S
C605        F619   1.382       .  S
C605        F620   1.383       .  S
C607        F615   1.382       .  S
C607        F616   1.377       .  S
C607        F617   1.384       .  S
C621        C623   1.544       .  S
C621        C625   1.558       .  S
C621        C624   1.535       .  S
C621        C903   1.503       .  S
C622        C626   1.522       .  S
C622        C628   1.521       .  S
C622        C627   1.548       .  S
C622        C880   1.508       .  S
C623        C631   1.379       .  A
C623        C936   1.382   1_554  A
C624        C635   1.389       .  A
C624        C937   1.386   1_554  A
C625        C639   1.401       .  A
C625        C938   1.386   1_554  A
C626        C933   1.382       .  A
C626        C629   1.378       .  A
C627        C934   1.386       .  A
C627        C633   1.371       .  A
C628        C935   1.386       .  A
C628        C636   1.362       .  A
C629        N630   1.354       .  A
C629        H642   1.080       .  S
N630        C941   1.353       .  A
N630        C676   1.425       .  S
C631        N940   1.353       .  A
C631        H632   1.083       .  S
C633        N944   1.355       .  A
C633        H643   1.083       .  S
N634        C943   1.355       .  A
N634        C635   1.358   1_556  A
N634        C687   1.433       .  S
C635        H641   1.082       .  S
C636        N947   1.347       .  A
C636        H638   1.083       .  S
N637        C946   1.347       .  A
N637        C639   1.359   1_556  A
N637       C1008   1.431       .  S
C639        H640   1.082       .  S
C644        C646   1.542       .  S
C644        C648   1.557       .  S
C644        C647   1.547       .  S
C644        C871   1.507       .  S
C645        C649   1.522       .  S
C645        C651   1.521       .  S
C645        C650   1.540       .  S
C645        C912   1.505       .  S
C646        C654   1.378       .  A
C646        C649   1.384       .  A
C647        C658   1.392       .  A
C647        C650   1.387       .  A
C648        C662   1.399       .  A
C648        C651   1.382       .  A
C649        C652   1.376       .  A
C650        C656   1.369       .  A
C651        C659   1.363       .  A
C652        N653   1.353       .  A
C652        H665   1.080       .  S
N653        C654   1.353       .  A
N653        C721   1.422       .  S
C654        H655   1.083       .  S
C656        N657   1.352       .  A
C656        H666   1.082       .  S
N657        C658   1.362       .  A
N657        C732   1.436       .  S
C658        H664   1.081       .  S
C659        N660   1.349       .  A
C659        H661   1.083       .  S
N660        C662   1.361       .  A
N660        C743   1.433       .  S
C662        H663   1.082       .  S
N667        N668   1.336       .  A
N667       N1293   1.321   1_565  A
N667      Mn1006   2.277   1_554  S
N668        C675   1.365   1_565  A
N669        N671   1.313       .  A
N669        N670   1.320       .  A
N669      Mn2235   2.200       .  S
N670        C676   1.352       .  A
N671        N672   1.321       .  A
N672        C676   1.351       .  A
N673       N1287   1.321   1_455  A
N673        N674   1.338       .  A
N673       Mn685   2.283   1_554  S
N674       C1295   1.367   1_455  A
C675       N1294   1.367       .  A
C675       C1376   1.546       .  S
N677        N683   1.322       .  A
N677        N678   1.328       .  A
N677       Mn707   2.218       .  S
N678        C686   1.358       .  A
N679        N990   1.328       .  A
N679        N681   1.321       .  A
N679       Mn995   2.222       .  S
N680        C687   1.359   1_554  A
N680        N989   1.328   1_554  A
N681        N682   1.312       .  A
N681       Mn707   2.200       .  S
N682        C997   1.344       .  A
N683        N684   1.312       .  A
N683       Mn995   2.211       .  S
N684        C686   1.346       .  A
Mn685      N2219   2.200   1_456  S
Mn685       N989   2.222       .  S
Mn685       N993   2.211       .  S
Mn685     Cl2259   2.568   1_455  S
C686        N770   1.432       .  S
C687        N992   1.344       .  A
N688        N689   1.312       .  A
N688        N694   1.321       .  A
N688       Mn696   2.214       .  S
N689        C697   1.347       .  A
N690        N692   1.320       .  A
N690        N691   1.312       .  A
N690       Mn708   2.207       .  S
N691        C698   1.347       .  A
N692       N1003   1.327       .  A
N692       Mn696   2.208       .  S
N693       C1008   1.356   1_554  A
N693       N1002   1.327   1_554  A
N694        N695   1.331       .  A
N694       Mn708   2.234       .  S
N695        C697   1.361       .  A
Mn696       N977   2.277       .  S
C697        N773   1.439       .  S
C698       N1003   1.356       .  A
C698        N947   1.431       .  S
N699        N700   1.322       .  A
N699        N705   1.315       .  A
N700        C710   1.349       .  A
N701        N702   1.336       .  A
N701       N1323   1.320   1_565  A
N701       Mn708   2.270       .  S
N702       C1331   1.363   1_565  A
N703       N1321   1.320   1_455  A
N703        N704   1.336       .  A
N703       Mn707   2.275       .  S
N704        C711   1.365   1_455  A
N705        N706   1.322       .  A
N705      Mn1948   2.219   1_455  S
N706        C710   1.355       .  A
Mn707     Cl1949   2.566   1_455  S
Mn708      N1945   2.219       .  S
Cl709     Mn2235   2.568       .  S
Cl709     Mn1947   2.566       .  S
C710        N766   1.430       .  S
C711       N1322   1.363       .  A
C711       C1340   1.540       .  S
N712        N713   1.337       .  A
N712       N1338   1.319   1_565  A
N712       Mn741   2.271       .  S
N713        C720   1.365   1_565  A
N714        N716   1.315       .  A
N714        N715   1.321       .  A
N714      Mn1970   2.205       .  S
N715        C721   1.353       .  A
N716        N717   1.318       .  A
N717        C721   1.349       .  A
N718       N1332   1.319   1_455  A
N718        N719   1.335       .  A
N718       Mn730   2.266       .  S
N719       C1340   1.363   1_455  A
C720       N1339   1.363       .  A
C720       C1331   1.540       .  S
N722        N728   1.323       .  A
N722        N723   1.331       .  A
N722       Mn752   2.229       .  S
N723        C731   1.358       .  A
N724        N725   1.326       .  A
N724        N726   1.322       .  A
N724       Mn730   2.211       .  S
N725        C732   1.356       .  A
N726        N727   1.315       .  A
N726       Mn752   2.226       .  S
N727        C732   1.351       .  A
N728        N729   1.314       .  A
N728       Mn730   2.209       .  S
N729        C731   1.345       .  A
Mn730      N1954   2.205   1_455  S
Mn730     Cl1994   2.569   1_455  S
C731        N793   1.438       .  S
N733        N734   1.315       .  A
N733        N739   1.322       .  A
N733       Mn741   2.208       .  S
N734        C742   1.344       .  A
N735        N737   1.322       .  A
N735        N736   1.313       .  A
N735       Mn753   2.217       .  S
N736        C743   1.346       .  A
N737        N738   1.328       .  A
N737       Mn741   2.213       .  S
N738        C743   1.357       .  A
N739        N740   1.329       .  A
N739       Mn753   2.230       .  S
N740        C742   1.360       .  A
C742        N796   1.437       .  S
N744        N745   1.322       .  A
N744        N750   1.314       .  A
N745        C755   1.354       .  A
N746        N747   1.337       .  A
N746       N1368   1.323   1_565  A
N746       Mn753   2.289       .  S
N747       C1376   1.366   1_565  A
N748       N1366   1.323   1_455  A
N748        N749   1.337       .  A
N748       Mn752   2.286       .  S
N749        C756   1.365   1_455  A
N750        N751   1.320       .  A
N750      Mn1993   2.193   1_455  S
N751        C755   1.350       .  A
Mn752     Cl1994   2.568   1_455  S
Mn753      N1990   2.193       .  S
Cl754     Mn1970   2.569       .  S
Cl754     Mn1992   2.568       .  S
C755        N789   1.428       .  S
C756       N1367   1.366       .  A
C756       C1295   1.546       .  S
C757        C759   1.564       .  S
C757        C761   1.551       .  S
C757        C760   1.532       .  S
C757        C816   1.511       .  S
C758        C762   1.533       .  S
C758        C764   1.543       .  S
C758        C763   1.518       .  S
C758        C839   1.516       .  S
C759        C767   1.386       .  A
C759        C762   1.392       .  A
C760        C771   1.390       .  A
C760        C763   1.375       .  A
C761        C775   1.397       .  A
C761        C764   1.394       .  A
C762        C765   1.382       .  A
C763        C769   1.364       .  A
C764        C772   1.366       .  A
C765        N766   1.355       .  A
C765        H778   1.079       .  S
N766        C767   1.352       .  A
C767        H768   1.081       .  S
C769        N770   1.353       .  A
C769        H779   1.083       .  S
N770        C771   1.359       .  A
C771        H777   1.082       .  S
C772        N773   1.352       .  A
C772        H774   1.082       .  S
N773        C775   1.362       .  A
C775        H776   1.079       .  S
C780        C782   1.533       .  S
C780        C784   1.555       .  S
C780        C783   1.544       .  S
C780        C848   1.511       .  S
C781        C785   1.519       .  S
C781        C787   1.550       .  S
C781        C786   1.536       .  S
C781        C807   1.514       .  S
C782        C790   1.382       .  A
C782        C785   1.378       .  A
C783        C794   1.393       .  A
C783        C786   1.386       .  A
C784        C798   1.392       .  A
C784        C787   1.406       .  A
C785        C788   1.379       .  A
C786        C792   1.368       .  A
C787        C795   1.381       .  A
C788        N789   1.353       .  A
C788        H801   1.083       .  S
N789        C790   1.354       .  A
C790        H791   1.082       .  S
C792        N793   1.354       .  A
C792        H802   1.081       .  S
N793        C794   1.360       .  A
C794        H800   1.080       .  S
C795        N796   1.354       .  A
C795        H797   1.082       .  S
N796        C798   1.352       .  A
C798        H799   1.082       .  S
C803        C804   1.392       .  A
C803        C808   1.390       .  A
C803        H813   1.085       .  S
C804        C805   1.407       .  A
C804        C809   1.453       .  S
C805        C810   1.520       .  S
C805        C806   1.397       .  A
C806        C807   1.407       .  A
C806        H811   1.080       .  S
C807        C808   1.431       .  A
C808        C812   1.528       .  S
C809        C814   1.406       .  A
C809        C818   1.402       .  A
C810        F826   1.382       .  S
C810        F827   1.383       .  S
C810        F828   1.384       .  S
C812        F823   1.384       .  S
C812        F824   1.384       .  S
C812        F825   1.376       .  S
C814        C819   1.524       .  S
C814        C815   1.386       .  A
C815        C816   1.407       .  A
C815        H820   1.082       .  S
C816        C817   1.420       .  A
C817        C821   1.520       .  S
C817        C818   1.400       .  A
C818        H822   1.085       .  S
C819        F832   1.385       .  S
C819        F833   1.381       .  S
C819        F834   1.383       .  S
C821        F829   1.384       .  S
C821        F830   1.379       .  S
C821        F831   1.382       .  S
C835        C836   1.397       .  A
C835        C840   1.396       .  A
C835        H845   1.086       .  S
C836        C837   1.403       .  A
C836        C841   1.452       .  S
C837        C842   1.523       .  S
C837       C1148   1.392       .  A
C838       C1147   1.392       .  A
C838        C839   1.414       .  A
C838        H843   1.080       .  S
C839       C1150   1.425       .  A
C840       C1154   1.523   1_554  S
C840       C1149   1.425   1_554  A
C841        C846   1.402       .  A
C841        C850   1.393       .  A
C842        F858   1.383       .  S
C842        F859   1.381       .  S
C842        F860   1.385       .  S
C844       C1150   1.523       .  S
C844        F855   1.383       .  S
C844        F856   1.385       .  S
C844        F857   1.378       .  S
C846        C851   1.523       .  S
C846        C847   1.393       .  A
C847        C848   1.414       .  A
C847        H852   1.078       .  S
C848        C849   1.432       .  A
C849        C853   1.529       .  S
C849        C850   1.394       .  A
C850        H854   1.086       .  S
C851        F864   1.385       .  S
C851        F865   1.383       .  S
C851        F866   1.381       .  S
C853        F861   1.385       .  S
C853        F862   1.376       .  S
C853        F863   1.383       .  S
C867        C868   1.389       .  A
C867        C872   1.392       .  A
C867        H877   1.086       .  S
C868        C869   1.402       .  A
C868        C873   1.443       .  S
C869        C874   1.524       .  S
C869        C870   1.388       .  A
C870        C871   1.410       .  A
C870        H875   1.075       .  S
C871        C872   1.435       .  A
C872        C876   1.529       .  S
C873        C878   1.402       .  A
C873        C882   1.394       .  A
C874        F890   1.382       .  S
C874        F891   1.383       .  S
C874        F892   1.385       .  S
C876        F887   1.383       .  S
C876        F888   1.385       .  S
C876        F889   1.375       .  S
C878        C883   1.524       .  S
C878        C879   1.385       .  A
C879        C880   1.410       .  A
C879        H884   1.078       .  S
C880        C881   1.428       .  A
C881        C885   1.526       .  S
C881        C882   1.394       .  A
C882        H886   1.085       .  S
C883        F896   1.385       .  S
C883        F897   1.382       .  S
C883        F898   1.382       .  S
C885        F893   1.383       .  S
C885        F894   1.377       .  S
C885        F895   1.385       .  S
C899        C900   1.387       .  A
C899        C904   1.391       .  A
C899        H909   1.086       .  S
C900        C901   1.403       .  A
C900        C905   1.442       .  S
C901        C906   1.524       .  S
C901        C902   1.385       .  A
C902        C903   1.407       .  A
C902        H907   1.069       .  S
C903        C904   1.439       .  A
C904        C908   1.533       .  S
C905        C910   1.403       .  A
C905        C914   1.396       .  A
C906        F922   1.380       .  S
C906        F923   1.383       .  S
C906        F924   1.385       .  S
C908        F919   1.384       .  S
C908        F920   1.384       .  S
C908        F921   1.374       .  S
C910        C915   1.525       .  S
C910        C911   1.384       .  A
C911        C912   1.410       .  A
C911        H916   1.080       .  S
C912        C913   1.424       .  A
C913        C917   1.526       .  S
C913        C914   1.393       .  A
C914        H918   1.085       .  S
C915        F928   1.384       .  S
C915        F929   1.382       .  S
C915        F930   1.383       .  S
C917        F925   1.382       .  S
C917        F926   1.377       .  S
C917        F927   1.384       .  S
C931        C933   1.544       .  S
C931        C935   1.558       .  S
C931        C934   1.535       .  S
C931       C1213   1.503       .  S
C932        C936   1.522       .  S
C932        C938   1.521       .  S
C932        C937   1.548       .  S
C932       C1190   1.508       .  S
C933        C941   1.379       .  A
C934        C945   1.389       .  A
C935        C949   1.401       .  A
C936        C939   1.378       .  A
C937        C943   1.371       .  A
C938        C946   1.362       .  A
C939        N940   1.354   1_556  A
C939        H952   1.080       .  S
N940        C986   1.425       .  S
C941        H942   1.083       .  S
C943        H953   1.083       .  S
N944        C945   1.358       .  A
N944        C997   1.433       .  S
C945        H951   1.082       .  S
C946        H948   1.083       .  S
N947        C949   1.359       .  A
C949        H950   1.082       .  S
C954        C956   1.542       .  S
C954        C958   1.557       .  S
C954        C957   1.547       .  S
C954       C1181   1.507       .  S
C955        C959   1.522       .  S
C955        C961   1.521       .  S
C955        C960   1.540       .  S
C955       C1222   1.505       .  S
C956        C964   1.378       .  A
C956        C959   1.384       .  A
C957        C968   1.392       .  A
C957        C960   1.387       .  A
C958        C972   1.399       .  A
C958        C961   1.382       .  A
C959        C962   1.376       .  A
C960        C966   1.369       .  A
C961        C969   1.363       .  A
C962        N963   1.353       .  A
C962        H975   1.080       .  S
N963        C964   1.353       .  A
N963       C1031   1.422       .  S
C964        H965   1.083       .  S
C966        N967   1.352       .  A
C966        H976   1.082       .  S
N967        C968   1.362       .  A
N967       C1042   1.436       .  S
C968        H974   1.081       .  S
C969        N970   1.349       .  A
C969        H971   1.083       .  S
N970        C972   1.361       .  A
N970       C1053   1.433       .  S
C972        H973   1.082       .  S
N977        N978   1.336       .  A
N977       N1603   1.321   1_565  A
N978        C985   1.365   1_565  A
N979        N981   1.313       .  A
N979        N980   1.320       .  A
N979      Mn1925   2.200   1_554  S
N980        C986   1.352       .  A
N981        N982   1.321       .  A
N982        C986   1.351       .  A
N983       N1597   1.321   1_455  A
N983        N984   1.338       .  A
N983       Mn995   2.283       .  S
N984       C1605   1.367   1_455  A
C985       N1604   1.367       .  A
C985       C1686   1.546       .  S
N987        N993   1.322       .  A
N987        N988   1.328       .  A
N987      Mn1017   2.218       .  S
N988        C996   1.358       .  A
N989        N991   1.321       .  A
N990        C997   1.359       .  A
N991        N992   1.312       .  A
N991      Mn1017   2.200       .  S
N993        N994   1.312       .  A
N994        C996   1.346       .  A
Mn995      N1909   2.200   1_455  S
Mn995     Cl1949   2.568   1_455  S
C996       N1080   1.432       .  S
N998        N999   1.312       .  A
N998       N1004   1.321       .  A
N998      Mn1006   2.214       .  S
N999       C1007   1.347       .  A
N1000      N1002   1.320       .  A
N1000      N1001   1.312       .  A
N1000     Mn1018   2.207       .  S
N1001      C1008   1.347       .  A
N1002     Mn1006   2.208       .  S
N1004      N1005   1.331       .  A
N1004     Mn1018   2.234       .  S
N1005      C1007   1.361       .  A
C1007      N1083   1.439       .  S
N1009      N1010   1.322       .  A
N1009      N1015   1.315       .  A
N1010      C1020   1.349       .  A
N1011      N1012   1.336       .  A
N1011      N1633   1.320   1_565  A
N1011     Mn1018   2.270       .  S
N1012      C1641   1.363   1_565  A
N1013      N1631   1.320   1_455  A
N1013      N1014   1.336       .  A
N1013     Mn1017   2.275       .  S
N1014      C1021   1.365   1_455  A
N1015      N1016   1.322       .  A
N1015     Mn2258   2.219   1_455  S
N1016      C1020   1.355       .  A
Mn1017    Cl2259   2.566   1_455  S
Mn1018     N2255   2.219       .  S
Cl1019    Mn1925   2.568       .  S
Cl1019    Mn2257   2.566       .  S
C1020      N1076   1.430       .  S
C1021      N1632   1.363       .  A
C1021      C1650   1.540       .  S
N1022      N1023   1.337       .  A
N1022      N1648   1.319   1_565  A
N1022     Mn1051   2.271       .  S
N1023      C1030   1.365   1_565  A
N1024      N1026   1.315       .  A
N1024      N1025   1.321       .  A
N1024     Mn2280   2.205       .  S
N1025      C1031   1.353       .  A
N1026      N1027   1.318       .  A
N1027      C1031   1.349       .  A
N1028      N1642   1.319   1_455  A
N1028      N1029   1.335       .  A
N1028     Mn1040   2.266       .  S
N1029      C1650   1.363   1_455  A
C1030      N1649   1.363       .  A
C1030      C1641   1.540       .  S
N1032      N1038   1.323       .  A
N1032      N1033   1.331       .  A
N1032     Mn1062   2.229       .  S
N1033      C1041   1.358       .  A
N1034      N1035   1.326       .  A
N1034      N1036   1.322       .  A
N1034     Mn1040   2.211       .  S
N1035      C1042   1.356       .  A
N1036      N1037   1.315       .  A
N1036     Mn1062   2.226       .  S
N1037      C1042   1.351       .  A
N1038      N1039   1.314       .  A
N1038     Mn1040   2.209       .  S
N1039      C1041   1.345       .  A
Mn1040     N2264   2.205   1_455  S
Mn1040    Cl2304   2.569   1_455  S
C1041      N1103   1.438       .  S
N1043      N1044   1.315       .  A
N1043      N1049   1.322       .  A
N1043     Mn1051   2.208       .  S
N1044      C1052   1.344       .  A
N1045      N1047   1.322       .  A
N1045      N1046   1.313       .  A
N1045     Mn1063   2.217       .  S
N1046      C1053   1.346       .  A
N1047      N1048   1.328       .  A
N1047     Mn1051   2.213       .  S
N1048      C1053   1.357       .  A
N1049      N1050   1.329       .  A
N1049     Mn1063   2.230       .  S
N1050      C1052   1.360       .  A
C1052      N1106   1.437       .  S
N1054      N1055   1.322       .  A
N1054      N1060   1.314       .  A
N1055      C1065   1.354       .  A
N1056      N1057   1.337       .  A
N1056      N1678   1.323   1_565  A
N1056     Mn1063   2.289       .  S
N1057      C1686   1.366   1_565  A
N1058      N1676   1.323   1_455  A
N1058      N1059   1.337       .  A
N1058     Mn1062   2.286       .  S
N1059      C1066   1.365   1_455  A
N1060      N1061   1.320       .  A
N1060     Mn2303   2.193   1_455  S
N1061      C1065   1.350       .  A
Mn1062    Cl2304   2.568   1_455  S
Mn1063     N2300   2.193       .  S
Cl1064    Mn2280   2.569       .  S
Cl1064    Mn2302   2.568       .  S
C1065      N1099   1.428       .  S
C1066      N1677   1.366       .  A
C1066      C1605   1.546       .  S
C1067      C1069   1.564       .  S
C1067      C1071   1.551       .  S
C1067      C1070   1.532       .  S
C1067      C1126   1.511       .  S
C1068      C1072   1.533       .  S
C1068      C1074   1.543       .  S
C1068      C1073   1.518       .  S
C1068      C1149   1.516       .  S
C1069      C1077   1.386       .  A
C1069      C1072   1.392       .  A
C1070      C1081   1.390       .  A
C1070      C1073   1.375       .  A
C1071      C1085   1.397       .  A
C1071      C1074   1.394       .  A
C1072      C1075   1.382       .  A
C1073      C1079   1.364       .  A
C1074      C1082   1.366       .  A
C1075      N1076   1.355       .  A
C1075      H1088   1.079       .  S
N1076      C1077   1.352       .  A
C1077      H1078   1.081       .  S
C1079      N1080   1.353       .  A
C1079      H1089   1.083       .  S
N1080      C1081   1.359       .  A
C1081      H1087   1.082       .  S
C1082      N1083   1.352       .  A
C1082      H1084   1.082       .  S
N1083      C1085   1.362       .  A
C1085      H1086   1.079       .  S
C1090      C1092   1.533       .  S
C1090      C1094   1.555       .  S
C1090      C1093   1.544       .  S
C1090      C1158   1.511       .  S
C1091      C1095   1.519       .  S
C1091      C1097   1.550       .  S
C1091      C1096   1.536       .  S
C1091      C1117   1.514       .  S
C1092      C1100   1.382       .  A
C1092      C1095   1.378       .  A
C1093      C1104   1.393       .  A
C1093      C1096   1.386       .  A
C1094      C1108   1.392       .  A
C1094      C1097   1.406       .  A
C1095      C1098   1.379       .  A
C1096      C1102   1.368       .  A
C1097      C1105   1.381       .  A
C1098      N1099   1.353       .  A
C1098      H1111   1.083       .  S
N1099      C1100   1.354       .  A
C1100      H1101   1.082       .  S
C1102      N1103   1.354       .  A
C1102      H1112   1.081       .  S
N1103      C1104   1.360       .  A
C1104      H1110   1.080       .  S
C1105      N1106   1.354       .  A
C1105      H1107   1.082       .  S
N1106      C1108   1.352       .  A
C1108      H1109   1.082       .  S
C1113      C1114   1.392       .  A
C1113      C1118   1.390       .  A
C1113      H1123   1.085       .  S
C1114      C1115   1.407       .  A
C1114      C1119   1.453       .  S
C1115      C1120   1.520       .  S
C1115      C1116   1.397       .  A
C1116      C1117   1.407       .  A
C1116      H1121   1.080       .  S
C1117      C1118   1.431       .  A
C1118      C1122   1.528       .  S
C1119      C1124   1.406       .  A
C1119      C1128   1.402       .  A
C1120      F1136   1.382       .  S
C1120      F1137   1.383       .  S
C1120      F1138   1.384       .  S
C1122      F1133   1.384       .  S
C1122      F1134   1.384       .  S
C1122      F1135   1.376       .  S
C1124      C1129   1.524       .  S
C1124      C1125   1.386       .  A
C1125      C1126   1.407       .  A
C1125      H1130   1.082       .  S
C1126      C1127   1.420       .  A
C1127      C1131   1.520       .  S
C1127      C1128   1.400       .  A
C1128      H1132   1.085       .  S
C1129      F1142   1.385       .  S
C1129      F1143   1.381       .  S
C1129      F1144   1.383       .  S
C1131      F1139   1.384       .  S
C1131      F1140   1.379       .  S
C1131      F1141   1.382       .  S
C1145      C1146   1.397       .  A
C1145      C1150   1.396       .  A
C1145      H1155   1.086       .  S
C1146      C1147   1.403       .  A
C1146      C1151   1.452       .  S
C1147      C1152   1.523       .  S
C1148      C1149   1.414   1_554  A
C1148      H1153   1.080   1_554  S
C1151      C1156   1.402       .  A
C1151      C1160   1.393       .  A
C1152      F1168   1.383       .  S
C1152      F1169   1.381       .  S
C1152      F1170   1.385       .  S
C1154      F1165   1.383   1_556  S
C1154      F1166   1.385   1_556  S
C1154      F1167   1.378       .  S
C1156      C1161   1.523       .  S
C1156      C1157   1.393       .  A
C1157      C1158   1.414       .  A
C1157      H1162   1.078       .  S
C1158      C1159   1.432       .  A
C1159      C1163   1.529       .  S
C1159      C1160   1.394       .  A
C1160      H1164   1.086       .  S
C1161      F1174   1.385       .  S
C1161      F1175   1.383       .  S
C1161      F1176   1.381       .  S
C1163      F1171   1.385       .  S
C1163      F1172   1.376       .  S
C1163      F1173   1.383       .  S
C1177      C1178   1.389       .  A
C1177      C1182   1.392       .  A
C1177      H1187   1.086       .  S
C1178      C1179   1.402       .  A
C1178      C1183   1.443       .  S
C1179      C1184   1.524       .  S
C1179      C1180   1.388       .  A
C1180      C1181   1.410       .  A
C1180      H1185   1.075       .  S
C1181      C1182   1.435       .  A
C1182      C1186   1.529       .  S
C1183      C1188   1.402       .  A
C1183      C1192   1.394       .  A
C1184      F1200   1.382       .  S
C1184      F1201   1.383       .  S
C1184      F1202   1.385       .  S
C1186      F1197   1.383       .  S
C1186      F1198   1.385       .  S
C1186      F1199   1.375       .  S
C1188      C1193   1.524       .  S
C1188      C1189   1.385       .  A
C1189      C1190   1.410       .  A
C1189      H1194   1.078       .  S
C1190      C1191   1.428       .  A
C1191      C1195   1.526       .  S
C1191      C1192   1.394       .  A
C1192      H1196   1.085       .  S
C1193      F1206   1.385       .  S
C1193      F1207   1.382       .  S
C1193      F1208   1.382       .  S
C1195      F1203   1.383       .  S
C1195      F1204   1.377       .  S
C1195      F1205   1.385       .  S
C1209      C1210   1.387       .  A
C1209      C1214   1.391       .  A
C1209      H1219   1.086       .  S
C1210      C1211   1.403       .  A
C1210      C1215   1.442       .  S
C1211      C1216   1.524       .  S
C1211      C1212   1.385       .  A
C1212      C1213   1.407       .  A
C1212      H1217   1.069       .  S
C1213      C1214   1.439       .  A
C1214      C1218   1.533       .  S
C1215      C1220   1.403       .  A
C1215      C1224   1.396       .  A
C1216      F1232   1.380       .  S
C1216      F1233   1.383       .  S
C1216      F1234   1.385       .  S
C1218      F1229   1.384       .  S
C1218      F1230   1.384       .  S
C1218      F1231   1.374       .  S
C1220      C1225   1.525       .  S
C1220      C1221   1.384       .  A
C1221      C1222   1.410       .  A
C1221      H1226   1.080       .  S
C1222      C1223   1.424       .  A
C1223      C1227   1.526       .  S
C1223      C1224   1.393       .  A
C1224      H1228   1.085       .  S
C1225      F1238   1.384       .  S
C1225      F1239   1.382       .  S
C1225      F1240   1.383       .  S
C1227      F1235   1.382       .  S
C1227      F1236   1.377       .  S
C1227      F1237   1.384       .  S
C1241      C1243   1.544       .  S
C1241      C1245   1.558       .  S
C1241      C1244   1.535       .  S
C1241      C1523   1.503       .  S
C1242      C1246   1.522       .  S
C1242      C1248   1.521       .  S
C1242      C1247   1.548       .  S
C1242      C1500   1.508       .  S
C1243      C1251   1.379       .  A
C1243      C1556   1.382   1_554  A
C1244      C1255   1.389       .  A
C1244      C1557   1.386   1_554  A
C1245      C1259   1.401       .  A
C1245      C1558   1.386   1_554  A
C1246      C1553   1.382       .  A
C1246      C1249   1.378       .  A
C1247      C1554   1.386       .  A
C1247      C1253   1.371       .  A
C1248      C1555   1.386       .  A
C1248      C1256   1.362       .  A
C1249      N1250   1.354       .  A
C1249      H1262   1.080       .  S
N1250      C1561   1.353       .  A
N1250      C1296   1.425       .  S
C1251      N1560   1.353       .  A
C1251      H1252   1.083       .  S
C1253      N1564   1.355       .  A
C1253      H1263   1.083       .  S
N1254      C1563   1.355       .  A
N1254      C1255   1.358   1_556  A
N1254      C1307   1.433       .  S
C1255      H1261   1.082       .  S
C1256      N1567   1.347       .  A
C1256      H1258   1.083       .  S
N1257      C1566   1.347       .  A
N1257      C1259   1.359   1_556  A
N1257      C1628   1.431       .  S
C1259      H1260   1.082       .  S
C1264      C1266   1.542       .  S
C1264      C1268   1.557       .  S
C1264      C1267   1.547       .  S
C1264      C1491   1.507       .  S
C1265      C1269   1.522       .  S
C1265      C1271   1.521       .  S
C1265      C1270   1.540       .  S
C1265      C1532   1.505       .  S
C1266      C1274   1.378       .  A
C1266      C1269   1.384       .  A
C1267      C1278   1.392       .  A
C1267      C1270   1.387       .  A
C1268      C1282   1.399       .  A
C1268      C1271   1.382       .  A
C1269      C1272   1.376       .  A
C1270      C1276   1.369       .  A
C1271      C1279   1.363       .  A
C1272      N1273   1.353       .  A
C1272      H1285   1.080       .  S
N1273      C1274   1.353       .  A
N1273      C1341   1.422       .  S
C1274      H1275   1.083       .  S
C1276      N1277   1.352       .  A
C1276      H1286   1.082       .  S
N1277      C1278   1.362       .  A
N1277      C1352   1.436       .  S
C1278      H1284   1.081       .  S
C1279      N1280   1.349       .  A
C1279      H1281   1.083       .  S
N1280      C1282   1.361       .  A
N1280      C1363   1.433       .  S
C1282      H1283   1.082       .  S
N1287      N1288   1.336       .  A
N1287     Mn1626   2.277   1_554  S
N1288      C1295   1.365       .  A
N1289      N1291   1.313       .  A
N1289      N1290   1.320       .  A
N1290      C1296   1.352       .  A
N1291      N1292   1.321       .  A
N1291     Mn1936   2.192   1_545  S
N1292      C1296   1.351       .  A
N1293      N1294   1.338       .  A
N1293     Mn1305   2.283   1_554  S
N1297      N1303   1.322       .  A
N1297      N1298   1.328       .  A
N1297     Mn1327   2.218       .  S
N1298      C1306   1.358       .  A
N1299      N1610   1.328       .  A
N1299      N1301   1.321       .  A
N1299     Mn1615   2.222       .  S
N1300      C1307   1.359   1_554  A
N1300      N1609   1.328   1_554  A
N1301      N1302   1.312       .  A
N1301     Mn1327   2.200       .  S
N1302      C1617   1.344       .  A
N1303      N1304   1.312       .  A
N1303     Mn1615   2.211       .  S
N1304      C1306   1.346       .  A
Mn1305     N1609   2.222       .  S
Mn1305     N1613   2.211       .  S
C1306      N1390   1.432       .  S
C1307      N1612   1.344       .  A
N1308      N1309   1.312       .  A
N1308      N1314   1.321       .  A
N1308     Mn1316   2.214       .  S
N1309      C1317   1.347       .  A
N1310      N1312   1.320       .  A
N1310      N1311   1.312       .  A
N1310     Mn1328   2.207       .  S
N1311      C1318   1.347       .  A
N1312      N1623   1.327       .  A
N1312     Mn1316   2.208       .  S
N1313      C1628   1.356   1_554  A
N1313      N1622   1.327   1_554  A
N1314      N1315   1.331       .  A
N1314     Mn1328   2.234       .  S
N1315      C1317   1.361       .  A
Mn1316     N1597   2.277       .  S
Mn1316     N1911   2.192       .  S
Mn1316    Cl1949   2.564       .  S
C1317      N1393   1.439       .  S
C1318      N1623   1.356       .  A
C1318      N1567   1.431       .  S
N1319      N1320   1.322       .  A
N1319      N1325   1.315       .  A
N1319     Mn1947   2.191       .  S
N1320      C1330   1.349       .  A
N1321      N1322   1.336       .  A
N1321     Mn1328   2.270       .  S
N1323      N1324   1.336       .  A
N1323     Mn1327   2.275       .  S
N1324      C1331   1.365       .  A
N1325      N1326   1.322       .  A
N1326      C1330   1.355       .  A
Mn1327     N1939   2.191   1_545  S
Mn1328    Cl1949   2.566       .  S
Cl1329    Mn1936   2.564   1_545  S
Cl1329    Mn1948   2.566   1_545  S
C1330      N1386   1.430       .  S
N1332      N1333   1.337       .  A
N1332     Mn1361   2.271       .  S
N1333      C1340   1.365       .  A
N1334      N1336   1.315       .  A
N1334      N1335   1.321       .  A
N1335      C1341   1.353       .  A
N1336      N1337   1.318       .  A
N1336     Mn1981   2.188   1_545  S
N1337      C1341   1.349       .  A
N1338      N1339   1.335       .  A
N1338     Mn1350   2.266       .  S
N1342      N1348   1.323       .  A
N1342      N1343   1.331       .  A
N1342     Mn1372   2.229       .  S
N1343      C1351   1.358       .  A
N1344      N1345   1.326       .  A
N1344      N1346   1.322       .  A
N1344     Mn1350   2.211       .  S
N1345      C1352   1.356       .  A
N1346      N1347   1.315       .  A
N1346     Mn1372   2.226       .  S
N1347      C1352   1.351       .  A
N1348      N1349   1.314       .  A
N1348     Mn1350   2.209       .  S
N1349      C1351   1.345       .  A
C1351      N1413   1.438       .  S
N1353      N1354   1.315       .  A
N1353      N1359   1.322       .  A
N1353     Mn1361   2.208       .  S
N1354      C1362   1.344       .  A
N1355      N1357   1.322       .  A
N1355      N1356   1.313       .  A
N1355     Mn1373   2.217       .  S
N1356      C1363   1.346       .  A
N1357      N1358   1.328       .  A
N1357     Mn1361   2.213       .  S
N1358      C1363   1.357       .  A
N1359      N1360   1.329       .  A
N1359     Mn1373   2.230       .  S
N1360      C1362   1.360       .  A
Mn1361     N1956   2.188       .  S
Mn1361    Cl1994   2.570       .  S
C1362      N1416   1.437       .  S
N1364      N1365   1.322       .  A
N1364      N1370   1.314       .  A
N1364     Mn1992   2.208       .  S
N1365      C1375   1.354       .  A
N1366      N1367   1.337       .  A
N1366     Mn1373   2.289       .  S
N1368      N1369   1.337       .  A
N1368     Mn1372   2.286       .  S
N1369      C1376   1.365       .  A
N1370      N1371   1.320       .  A
N1371      C1375   1.350       .  A
Mn1372     N1984   2.208   1_545  S
Mn1373    Cl1994   2.571       .  S
Cl1374    Mn1981   2.570   1_545  S
Cl1374    Mn1993   2.571   1_545  S
C1375      N1409   1.428       .  S
C1377      C1379   1.564       .  S
C1377      C1381   1.551       .  S
C1377      C1380   1.532       .  S
C1377      C1436   1.511       .  S
C1378      C1382   1.533       .  S
C1378      C1384   1.543       .  S
C1378      C1383   1.518       .  S
C1378      C1459   1.516       .  S
C1379      C1387   1.386       .  A
C1379      C1382   1.392       .  A
C1380      C1391   1.390       .  A
C1380      C1383   1.375       .  A
C1381      C1395   1.397       .  A
C1381      C1384   1.394       .  A
C1382      C1385   1.382       .  A
C1383      C1389   1.364       .  A
C1384      C1392   1.366       .  A
C1385      N1386   1.355       .  A
C1385      H1398   1.079       .  S
N1386      C1387   1.352       .  A
C1387      H1388   1.081       .  S
C1389      N1390   1.353       .  A
C1389      H1399   1.083       .  S
N1390      C1391   1.359       .  A
C1391      H1397   1.082       .  S
C1392      N1393   1.352       .  A
C1392      H1394   1.082       .  S
N1393      C1395   1.362       .  A
C1395      H1396   1.079       .  S
C1400      C1402   1.533       .  S
C1400      C1404   1.555       .  S
C1400      C1403   1.544       .  S
C1400      C1468   1.511       .  S
C1401      C1405   1.519       .  S
C1401      C1407   1.550       .  S
C1401      C1406   1.536       .  S
C1401      C1427   1.514       .  S
C1402      C1410   1.382       .  A
C1402      C1405   1.378       .  A
C1403      C1414   1.393       .  A
C1403      C1406   1.386       .  A
C1404      C1418   1.392       .  A
C1404      C1407   1.406       .  A
C1405      C1408   1.379       .  A
C1406      C1412   1.368       .  A
C1407      C1415   1.381       .  A
C1408      N1409   1.353       .  A
C1408      H1421   1.083       .  S
N1409      C1410   1.354       .  A
C1410      H1411   1.082       .  S
C1412      N1413   1.354       .  A
C1412      H1422   1.081       .  S
N1413      C1414   1.360       .  A
C1414      H1420   1.080       .  S
C1415      N1416   1.354       .  A
C1415      H1417   1.082       .  S
N1416      C1418   1.352       .  A
C1418      H1419   1.082       .  S
C1423      C1424   1.392       .  A
C1423      C1428   1.390       .  A
C1423      H1433   1.085       .  S
C1424      C1425   1.407       .  A
C1424      C1429   1.453       .  S
C1425      C1430   1.520       .  S
C1425      C1426   1.397       .  A
C1426      C1427   1.407       .  A
C1426      H1431   1.080       .  S
C1427      C1428   1.431       .  A
C1428      C1432   1.528       .  S
C1429      C1434   1.406       .  A
C1429      C1438   1.402       .  A
C1430      F1446   1.382       .  S
C1430      F1447   1.383       .  S
C1430      F1448   1.384       .  S
C1432      F1443   1.384       .  S
C1432      F1444   1.384       .  S
C1432      F1445   1.376       .  S
C1434      C1439   1.524       .  S
C1434      C1435   1.386       .  A
C1435      C1436   1.407       .  A
C1435      H1440   1.082       .  S
C1436      C1437   1.420       .  A
C1437      C1441   1.520       .  S
C1437      C1438   1.400       .  A
C1438      H1442   1.085       .  S
C1439      F1452   1.385       .  S
C1439      F1453   1.381       .  S
C1439      F1454   1.383       .  S
C1441      F1449   1.384       .  S
C1441      F1450   1.379       .  S
C1441      F1451   1.382       .  S
C1455      C1456   1.397       .  A
C1455      C1460   1.396       .  A
C1455      H1465   1.086       .  S
C1456      C1457   1.403       .  A
C1456      C1461   1.452       .  S
C1457      C1462   1.523       .  S
C1457      C1768   1.392       .  A
C1458      C1767   1.392       .  A
C1458      C1459   1.414       .  A
C1458      H1463   1.080       .  S
C1459      C1770   1.425       .  A
C1460      C1774   1.523   1_554  S
C1460      C1769   1.425   1_554  A
C1461      C1466   1.402       .  A
C1461      C1470   1.393       .  A
C1462      F1478   1.383       .  S
C1462      F1479   1.381       .  S
C1462      F1480   1.385       .  S
C1464      C1770   1.523       .  S
C1464      F1475   1.383       .  S
C1464      F1476   1.385       .  S
C1464      F1477   1.378       .  S
C1466      C1471   1.523       .  S
C1466      C1467   1.393       .  A
C1467      C1468   1.414       .  A
C1467      H1472   1.078       .  S
C1468      C1469   1.432       .  A
C1469      C1473   1.529       .  S
C1469      C1470   1.394       .  A
C1470      H1474   1.086       .  S
C1471      F1484   1.385       .  S
C1471      F1485   1.383       .  S
C1471      F1486   1.381       .  S
C1473      F1481   1.385       .  S
C1473      F1482   1.376       .  S
C1473      F1483   1.383       .  S
C1487      C1488   1.389       .  A
C1487      C1492   1.392       .  A
C1487      H1497   1.086       .  S
C1488      C1489   1.402       .  A
C1488      C1493   1.443       .  S
C1489      C1494   1.524       .  S
C1489      C1490   1.388       .  A
C1490      C1491   1.410       .  A
C1490      H1495   1.075       .  S
C1491      C1492   1.435       .  A
C1492      C1496   1.529       .  S
C1493      C1498   1.402       .  A
C1493      C1502   1.394       .  A
C1494      F1510   1.382       .  S
C1494      F1511   1.383       .  S
C1494      F1512   1.385       .  S
C1496      F1507   1.383       .  S
C1496      F1508   1.385       .  S
C1496      F1509   1.375       .  S
C1498      C1503   1.524       .  S
C1498      C1499   1.385       .  A
C1499      C1500   1.410       .  A
C1499      H1504   1.078       .  S
C1500      C1501   1.428       .  A
C1501      C1505   1.526       .  S
C1501      C1502   1.394       .  A
C1502      H1506   1.085       .  S
C1503      F1516   1.385       .  S
C1503      F1517   1.382       .  S
C1503      F1518   1.382       .  S
C1505      F1513   1.383       .  S
C1505      F1514   1.377       .  S
C1505      F1515   1.385       .  S
C1519      C1520   1.387       .  A
C1519      C1524   1.391       .  A
C1519      H1529   1.086       .  S
C1520      C1521   1.403       .  A
C1520      C1525   1.442       .  S
C1521      C1526   1.524       .  S
C1521      C1522   1.385       .  A
C1522      C1523   1.407       .  A
C1522      H1527   1.069       .  S
C1523      C1524   1.439       .  A
C1524      C1528   1.533       .  S
C1525      C1530   1.403       .  A
C1525      C1534   1.396       .  A
C1526      F1542   1.380       .  S
C1526      F1543   1.383       .  S
C1526      F1544   1.385       .  S
C1528      F1539   1.384       .  S
C1528      F1540   1.384       .  S
C1528      F1541   1.374       .  S
C1530      C1535   1.525       .  S
C1530      C1531   1.384       .  A
C1531      C1532   1.410       .  A
C1531      H1536   1.080       .  S
C1532      C1533   1.424       .  A
C1533      C1537   1.526       .  S
C1533      C1534   1.393       .  A
C1534      H1538   1.085       .  S
C1535      F1548   1.384       .  S
C1535      F1549   1.382       .  S
C1535      F1550   1.383       .  S
C1537      F1545   1.382       .  S
C1537      F1546   1.377       .  S
C1537      F1547   1.384       .  S
C1551      C1553   1.544       .  S
C1551      C1555   1.558       .  S
C1551      C1554   1.535       .  S
C1551      C1833   1.503       .  S
C1552      C1556   1.522       .  S
C1552      C1558   1.521       .  S
C1552      C1557   1.548       .  S
C1552      C1810   1.508       .  S
C1553      C1561   1.379       .  A
C1554      C1565   1.389       .  A
C1555      C1569   1.401       .  A
C1556      C1559   1.378       .  A
C1557      C1563   1.371       .  A
C1558      C1566   1.362       .  A
C1559      N1560   1.354   1_556  A
C1559      H1572   1.080       .  S
N1560      C1606   1.425       .  S
C1561      H1562   1.083       .  S
C1563      H1573   1.083       .  S
N1564      C1565   1.358       .  A
N1564      C1617   1.433       .  S
C1565      H1571   1.082       .  S
C1566      H1568   1.083       .  S
N1567      C1569   1.359       .  A
C1569      H1570   1.082       .  S
C1574      C1576   1.542       .  S
C1574      C1578   1.557       .  S
C1574      C1577   1.547       .  S
C1574      C1801   1.507       .  S
C1575      C1579   1.522       .  S
C1575      C1581   1.521       .  S
C1575      C1580   1.540       .  S
C1575      C1842   1.505       .  S
C1576      C1584   1.378       .  A
C1576      C1579   1.384       .  A
C1577      C1588   1.392       .  A
C1577      C1580   1.387       .  A
C1578      C1592   1.399       .  A
C1578      C1581   1.382       .  A
C1579      C1582   1.376       .  A
C1580      C1586   1.369       .  A
C1581      C1589   1.363       .  A
C1582      N1583   1.353       .  A
C1582      H1595   1.080       .  S
N1583      C1584   1.353       .  A
N1583      C1651   1.422       .  S
C1584      H1585   1.083       .  S
C1586      N1587   1.352       .  A
C1586      H1596   1.082       .  S
N1587      C1588   1.362       .  A
N1587      C1662   1.436       .  S
C1588      H1594   1.081       .  S
C1589      N1590   1.349       .  A
C1589      H1591   1.083       .  S
N1590      C1592   1.361       .  A
N1590      C1673   1.433       .  S
C1592      H1593   1.082       .  S
N1597      N1598   1.336       .  A
N1598      C1605   1.365       .  A
N1599      N1601   1.313       .  A
N1599      N1600   1.320       .  A
N1600      C1606   1.352       .  A
N1601      N1602   1.321       .  A
N1601     Mn2246   2.192   1_544  S
N1602      C1606   1.351       .  A
N1603      N1604   1.338       .  A
N1603     Mn1615   2.283       .  S
N1607      N1613   1.322       .  A
N1607      N1608   1.328       .  A
N1607     Mn1637   2.218       .  S
N1608      C1616   1.358       .  A
N1609      N1611   1.321       .  A
N1610      C1617   1.359       .  A
N1611      N1612   1.312       .  A
N1611     Mn1637   2.200       .  S
N1613      N1614   1.312       .  A
N1614      C1616   1.346       .  A
C1616      N1700   1.432       .  S
N1618      N1619   1.312       .  A
N1618      N1624   1.321       .  A
N1618     Mn1626   2.214       .  S
N1619      C1627   1.347       .  A
N1620      N1622   1.320       .  A
N1620      N1621   1.312       .  A
N1620     Mn1638   2.207       .  S
N1621      C1628   1.347       .  A
N1622     Mn1626   2.208       .  S
N1624      N1625   1.331       .  A
N1624     Mn1638   2.234       .  S
N1625      C1627   1.361       .  A
Mn1626     N2221   2.192   1_556  S
Mn1626    Cl2259   2.564       .  S
C1627      N1703   1.439       .  S
N1629      N1630   1.322       .  A
N1629      N1635   1.315       .  A
N1629     Mn2257   2.191       .  S
N1630      C1640   1.349       .  A
N1631      N1632   1.336       .  A
N1631     Mn1638   2.270       .  S
N1633      N1634   1.336       .  A
N1633     Mn1637   2.275       .  S
N1634      C1641   1.365       .  A
N1635      N1636   1.322       .  A
N1636      C1640   1.355       .  A
Mn1637     N2249   2.191   1_545  S
Mn1638    Cl2259   2.566       .  S
Cl1639    Mn2246   2.564   1_545  S
Cl1639    Mn2258   2.566   1_545  S
C1640      N1696   1.430       .  S
N1642      N1643   1.337       .  A
N1642     Mn1671   2.271       .  S
N1643      C1650   1.365       .  A
N1644      N1646   1.315       .  A
N1644      N1645   1.321       .  A
N1645      C1651   1.353       .  A
N1646      N1647   1.318       .  A
N1646     Mn2291   2.188   1_545  S
N1647      C1651   1.349       .  A
N1648      N1649   1.335       .  A
N1648     Mn1660   2.266       .  S
N1652      N1658   1.323       .  A
N1652      N1653   1.331       .  A
N1652     Mn1682   2.229       .  S
N1653      C1661   1.358       .  A
N1654      N1655   1.326       .  A
N1654      N1656   1.322       .  A
N1654     Mn1660   2.211       .  S
N1655      C1662   1.356       .  A
N1656      N1657   1.315       .  A
N1656     Mn1682   2.226       .  S
N1657      C1662   1.351       .  A
N1658      N1659   1.314       .  A
N1658     Mn1660   2.209       .  S
N1659      C1661   1.345       .  A
C1661      N1723   1.438       .  S
N1663      N1664   1.315       .  A
N1663      N1669   1.322       .  A
N1663     Mn1671   2.208       .  S
N1664      C1672   1.344       .  A
N1665      N1667   1.322       .  A
N1665      N1666   1.313       .  A
N1665     Mn1683   2.217       .  S
N1666      C1673   1.346       .  A
N1667      N1668   1.328       .  A
N1667     Mn1671   2.213       .  S
N1668      C1673   1.357       .  A
N1669      N1670   1.329       .  A
N1669     Mn1683   2.230       .  S
N1670      C1672   1.360       .  A
Mn1671     N2266   2.188       .  S
Mn1671    Cl2304   2.570       .  S
C1672      N1726   1.437       .  S
N1674      N1675   1.322       .  A
N1674      N1680   1.314       .  A
N1674     Mn2302   2.208       .  S
N1675      C1685   1.354       .  A
N1676      N1677   1.337       .  A
N1676     Mn1683   2.289       .  S
N1678      N1679   1.337       .  A
N1678     Mn1682   2.286       .  S
N1679      C1686   1.365       .  A
N1680      N1681   1.320       .  A
N1681      C1685   1.350       .  A
Mn1682     N2294   2.208   1_545  S
Mn1683    Cl2304   2.571       .  S
Cl1684    Mn2291   2.570   1_545  S
Cl1684    Mn2303   2.571   1_545  S
C1685      N1719   1.428       .  S
C1687      C1689   1.564       .  S
C1687      C1691   1.551       .  S
C1687      C1690   1.532       .  S
C1687      C1746   1.511       .  S
C1688      C1692   1.533       .  S
C1688      C1694   1.543       .  S
C1688      C1693   1.518       .  S
C1688      C1769   1.516       .  S
C1689      C1697   1.386       .  A
C1689      C1692   1.392       .  A
C1690      C1701   1.390       .  A
C1690      C1693   1.375       .  A
C1691      C1705   1.397       .  A
C1691      C1694   1.394       .  A
C1692      C1695   1.382       .  A
C1693      C1699   1.364       .  A
C1694      C1702   1.366       .  A
C1695      N1696   1.355       .  A
C1695      H1708   1.079       .  S
N1696      C1697   1.352       .  A
C1697      H1698   1.081       .  S
C1699      N1700   1.353       .  A
C1699      H1709   1.083       .  S
N1700      C1701   1.359       .  A
C1701      H1707   1.082       .  S
C1702      N1703   1.352       .  A
C1702      H1704   1.082       .  S
N1703      C1705   1.362       .  A
C1705      H1706   1.079       .  S
C1710      C1712   1.533       .  S
C1710      C1714   1.555       .  S
C1710      C1713   1.544       .  S
C1710      C1778   1.511       .  S
C1711      C1715   1.519       .  S
C1711      C1717   1.550       .  S
C1711      C1716   1.536       .  S
C1711      C1737   1.514       .  S
C1712      C1720   1.382       .  A
C1712      C1715   1.378       .  A
C1713      C1724   1.393       .  A
C1713      C1716   1.386       .  A
C1714      C1728   1.392       .  A
C1714      C1717   1.406       .  A
C1715      C1718   1.379       .  A
C1716      C1722   1.368       .  A
C1717      C1725   1.381       .  A
C1718      N1719   1.353       .  A
C1718      H1731   1.083       .  S
N1719      C1720   1.354       .  A
C1720      H1721   1.082       .  S
C1722      N1723   1.354       .  A
C1722      H1732   1.081       .  S
N1723      C1724   1.360       .  A
C1724      H1730   1.080       .  S
C1725      N1726   1.354       .  A
C1725      H1727   1.082       .  S
N1726      C1728   1.352       .  A
C1728      H1729   1.082       .  S
C1733      C1734   1.392       .  A
C1733      C1738   1.390       .  A
C1733      H1743   1.085       .  S
C1734      C1735   1.407       .  A
C1734      C1739   1.453       .  S
C1735      C1740   1.520       .  S
C1735      C1736   1.397       .  A
C1736      C1737   1.407       .  A
C1736      H1741   1.080       .  S
C1737      C1738   1.431       .  A
C1738      C1742   1.528       .  S
C1739      C1744   1.406       .  A
C1739      C1748   1.402       .  A
C1740      F1756   1.382       .  S
C1740      F1757   1.383       .  S
C1740      F1758   1.384       .  S
C1742      F1753   1.384       .  S
C1742      F1754   1.384       .  S
C1742      F1755   1.376       .  S
C1744      C1749   1.524       .  S
C1744      C1745   1.386       .  A
C1745      C1746   1.407       .  A
C1745      H1750   1.082       .  S
C1746      C1747   1.420       .  A
C1747      C1751   1.520       .  S
C1747      C1748   1.400       .  A
C1748      H1752   1.085       .  S
C1749      F1762   1.385       .  S
C1749      F1763   1.381       .  S
C1749      F1764   1.383       .  S
C1751      F1759   1.384       .  S
C1751      F1760   1.379       .  S
C1751      F1761   1.382       .  S
C1765      C1766   1.397       .  A
C1765      C1770   1.396       .  A
C1765      H1775   1.086       .  S
C1766      C1767   1.403       .  A
C1766      C1771   1.452       .  S
C1767      C1772   1.523       .  S
C1768      C1769   1.414   1_554  A
C1768      H1773   1.080   1_554  S
C1771      C1776   1.402       .  A
C1771      C1780   1.393       .  A
C1772      F1788   1.383       .  S
C1772      F1789   1.381       .  S
C1772      F1790   1.385       .  S
C1774      F1785   1.383   1_556  S
C1774      F1786   1.385   1_556  S
C1774      F1787   1.378       .  S
C1776      C1781   1.523       .  S
C1776      C1777   1.393       .  A
C1777      C1778   1.414       .  A
C1777      H1782   1.078       .  S
C1778      C1779   1.432       .  A
C1779      C1783   1.529       .  S
C1779      C1780   1.394       .  A
C1780      H1784   1.086       .  S
C1781      F1794   1.385       .  S
C1781      F1795   1.383       .  S
C1781      F1796   1.381       .  S
C1783      F1791   1.385       .  S
C1783      F1792   1.376       .  S
C1783      F1793   1.383       .  S
C1797      C1798   1.389       .  A
C1797      C1802   1.392       .  A
C1797      H1807   1.086       .  S
C1798      C1799   1.402       .  A
C1798      C1803   1.443       .  S
C1799      C1804   1.524       .  S
C1799      C1800   1.388       .  A
C1800      C1801   1.410       .  A
C1800      H1805   1.075       .  S
C1801      C1802   1.435       .  A
C1802      C1806   1.529       .  S
C1803      C1808   1.402       .  A
C1803      C1812   1.394       .  A
C1804      F1820   1.382       .  S
C1804      F1821   1.383       .  S
C1804      F1822   1.385       .  S
C1806      F1817   1.383       .  S
C1806      F1818   1.385       .  S
C1806      F1819   1.375       .  S
C1808      C1813   1.524       .  S
C1808      C1809   1.385       .  A
C1809      C1810   1.410       .  A
C1809      H1814   1.078       .  S
C1810      C1811   1.428       .  A
C1811      C1815   1.526       .  S
C1811      C1812   1.394       .  A
C1812      H1816   1.085       .  S
C1813      F1826   1.385       .  S
C1813      F1827   1.382       .  S
C1813      F1828   1.382       .  S
C1815      F1823   1.383       .  S
C1815      F1824   1.377       .  S
C1815      F1825   1.385       .  S
C1829      C1830   1.387       .  A
C1829      C1834   1.391       .  A
C1829      H1839   1.086       .  S
C1830      C1831   1.403       .  A
C1830      C1835   1.442       .  S
C1831      C1836   1.524       .  S
C1831      C1832   1.385       .  A
C1832      C1833   1.407       .  A
C1832      H1837   1.069       .  S
C1833      C1834   1.439       .  A
C1834      C1838   1.533       .  S
C1835      C1840   1.403       .  A
C1835      C1844   1.396       .  A
C1836      F1852   1.380       .  S
C1836      F1853   1.383       .  S
C1836      F1854   1.385       .  S
C1838      F1849   1.384       .  S
C1838      F1850   1.384       .  S
C1838      F1851   1.374       .  S
C1840      C1845   1.525       .  S
C1840      C1841   1.384       .  A
C1841      C1842   1.410       .  A
C1841      H1846   1.080       .  S
C1842      C1843   1.424       .  A
C1843      C1847   1.526       .  S
C1843      C1844   1.393       .  A
C1844      H1848   1.085       .  S
C1845      F1858   1.384       .  S
C1845      F1859   1.382       .  S
C1845      F1860   1.383       .  S
C1847      F1855   1.382       .  S
C1847      F1856   1.377       .  S
C1847      F1857   1.384       .  S
C1861      C1863   1.544       .  S
C1861      C1865   1.558       .  S
C1861      C1864   1.535       .  S
C1861      C2143   1.503       .  S
C1862      C1866   1.522       .  S
C1862      C1868   1.521       .  S
C1862      C1867   1.548       .  S
C1862      C2120   1.508       .  S
C1863      C1871   1.379       .  A
C1863      C2176   1.382   1_554  A
C1864      C1875   1.389       .  A
C1864      C2177   1.386   1_554  A
C1865      C1879   1.401       .  A
C1865      C2178   1.386   1_554  A
C1866      C2173   1.382       .  A
C1866      C1869   1.378       .  A
C1867      C2174   1.386       .  A
C1867      C1873   1.371       .  A
C1868      C2175   1.386       .  A
C1868      C1876   1.362       .  A
C1869      N1870   1.354       .  A
C1869      H1882   1.080       .  S
N1870      C2181   1.353       .  A
N1870      C1916   1.425       .  S
C1871      N2180   1.353       .  A
C1871      H1872   1.083       .  S
C1873      N2184   1.355       .  A
C1873      H1883   1.083       .  S
N1874      C2183   1.355       .  A
N1874      C1875   1.358   1_556  A
N1874      C1927   1.433       .  S
C1875      H1881   1.082       .  S
C1876      N2187   1.347       .  A
C1876      H1878   1.083       .  S
N1877      C2186   1.347       .  A
N1877      C1879   1.359   1_556  A
N1877      C2248   1.431       .  S
C1879      H1880   1.082       .  S
C1884      C1886   1.542       .  S
C1884      C1888   1.557       .  S
C1884      C1887   1.547       .  S
C1884      C2111   1.507       .  S
C1885      C1889   1.522       .  S
C1885      C1891   1.521       .  S
C1885      C1890   1.540       .  S
C1885      C2152   1.505       .  S
C1886      C1894   1.378       .  A
C1886      C1889   1.384       .  A
C1887      C1898   1.392       .  A
C1887      C1890   1.387       .  A
C1888      C1902   1.399       .  A
C1888      C1891   1.382       .  A
C1889      C1892   1.376       .  A
C1890      C1896   1.369       .  A
C1891      C1899   1.363       .  A
C1892      N1893   1.353       .  A
C1892      H1905   1.080       .  S
N1893      C1894   1.353       .  A
N1893      C1961   1.422       .  S
C1894      H1895   1.083       .  S
C1896      N1897   1.352       .  A
C1896      H1906   1.082       .  S
N1897      C1898   1.362       .  A
N1897      C1972   1.436       .  S
C1898      H1904   1.081       .  S
C1899      N1900   1.349       .  A
C1899      H1901   1.083       .  S
N1900      C1902   1.361       .  A
N1900      C1983   1.433       .  S
C1902      H1903   1.082       .  S
N1907      N1908   1.336       .  A
N1907     Mn2246   2.277   1_554  S
N1908      C1915   1.365   1_565  A
N1909      N1911   1.313       .  A
N1909      N1910   1.320       .  A
N1910      C1916   1.352       .  A
N1911      N1912   1.321       .  A
N1912      C1916   1.351       .  A
N1913      N1914   1.338       .  A
N1913     Mn1925   2.283   1_554  S
N1917      N1923   1.322       .  A
N1917      N1918   1.328       .  A
N1917     Mn1947   2.218       .  S
N1918      C1926   1.358       .  A
N1919      N2230   1.328       .  A
N1919      N1921   1.321       .  A
N1919     Mn2235   2.222       .  S
N1920      C1927   1.359   1_554  A
N1920      N2229   1.328   1_554  A
N1921      N1922   1.312       .  A
N1921     Mn1947   2.200       .  S
N1922      C2237   1.344       .  A
N1923      N1924   1.312       .  A
N1923     Mn2235   2.211       .  S
N1924      C1926   1.346       .  A
Mn1925     N2229   2.222       .  S
Mn1925     N2233   2.211       .  S
C1926      N2010   1.432       .  S
C1927      N2232   1.344       .  A
N1928      N1929   1.312       .  A
N1928      N1934   1.321       .  A
N1928     Mn1936   2.214       .  S
N1929      C1937   1.347       .  A
N1930      N1932   1.320       .  A
N1930      N1931   1.312       .  A
N1930     Mn1948   2.207       .  S
N1931      C1938   1.347       .  A
N1932      N2243   1.327       .  A
N1932     Mn1936   2.208       .  S
N1933      C2248   1.356   1_554  A
N1933      N2242   1.327   1_554  A
N1934      N1935   1.331       .  A
N1934     Mn1948   2.234       .  S
N1935      C1937   1.361       .  A
Mn1936     N2217   2.277       .  S
C1937      N2013   1.439       .  S
C1938      N2243   1.356       .  A
C1938      N2187   1.431       .  S
N1939      N1940   1.322       .  A
N1939      N1945   1.315       .  A
N1940      C1950   1.349       .  A
N1941      N1942   1.336       .  A
N1941     Mn1948   2.270       .  S
N1943      N1944   1.336       .  A
N1943     Mn1947   2.275       .  S
N1944      C1951   1.365       .  A
N1945      N1946   1.322       .  A
N1946      C1950   1.355       .  A
C1950      N2006   1.430       .  S
N1952      N1953   1.337       .  A
N1952     Mn1981   2.271       .  S
N1953      C1960   1.365   1_565  A
N1954      N1956   1.315       .  A
N1954      N1955   1.321       .  A
N1955      C1961   1.353       .  A
N1956      N1957   1.318       .  A
N1957      C1961   1.349       .  A
N1958      N1959   1.335       .  A
N1958     Mn1970   2.266       .  S
N1962      N1968   1.323       .  A
N1962      N1963   1.331       .  A
N1962     Mn1992   2.229       .  S
N1963      C1971   1.358       .  A
N1964      N1965   1.326       .  A
N1964      N1966   1.322       .  A
N1964     Mn1970   2.211       .  S
N1965      C1972   1.356       .  A
N1966      N1967   1.315       .  A
N1966     Mn1992   2.226       .  S
N1967      C1972   1.351       .  A
N1968      N1969   1.314       .  A
N1968     Mn1970   2.209       .  S
N1969      C1971   1.345       .  A
C1971      N2033   1.438       .  S
N1973      N1974   1.315       .  A
N1973      N1979   1.322       .  A
N1973     Mn1981   2.208       .  S
N1974      C1982   1.344       .  A
N1975      N1977   1.322       .  A
N1975      N1976   1.313       .  A
N1975     Mn1993   2.217       .  S
N1976      C1983   1.346       .  A
N1977      N1978   1.328       .  A
N1977     Mn1981   2.213       .  S
N1978      C1983   1.357       .  A
N1979      N1980   1.329       .  A
N1979     Mn1993   2.230       .  S
N1980      C1982   1.360       .  A
C1982      N2036   1.437       .  S
N1984      N1985   1.322       .  A
N1984      N1990   1.314       .  A
N1985      C1995   1.354       .  A
N1986      N1987   1.337       .  A
N1986     Mn1993   2.289       .  S
N1988      N1989   1.337       .  A
N1988     Mn1992   2.286       .  S
N1989      C1996   1.365       .  A
N1990      N1991   1.320       .  A
N1991      C1995   1.350       .  A
C1995      N2029   1.428       .  S
C1997      C1999   1.564       .  S
C1997      C2001   1.551       .  S
C1997      C2000   1.532       .  S
C1997      C2056   1.511       .  S
C1998      C2002   1.533       .  S
C1998      C2004   1.543       .  S
C1998      C2003   1.518       .  S
C1998      C2079   1.516       .  S
C1999      C2007   1.386       .  A
C1999      C2002   1.392       .  A
C2000      C2011   1.390       .  A
C2000      C2003   1.375       .  A
C2001      C2015   1.397       .  A
C2001      C2004   1.394       .  A
C2002      C2005   1.382       .  A
C2003      C2009   1.364       .  A
C2004      C2012   1.366       .  A
C2005      N2006   1.355       .  A
C2005      H2018   1.079       .  S
N2006      C2007   1.352       .  A
C2007      H2008   1.081       .  S
C2009      N2010   1.353       .  A
C2009      H2019   1.083       .  S
N2010      C2011   1.359       .  A
C2011      H2017   1.082       .  S
C2012      N2013   1.352       .  A
C2012      H2014   1.082       .  S
N2013      C2015   1.362       .  A
C2015      H2016   1.079       .  S
C2020      C2022   1.533       .  S
C2020      C2024   1.555       .  S
C2020      C2023   1.544       .  S
C2020      C2088   1.511       .  S
C2021      C2025   1.519       .  S
C2021      C2027   1.550       .  S
C2021      C2026   1.536       .  S
C2021      C2047   1.514       .  S
C2022      C2030   1.382       .  A
C2022      C2025   1.378       .  A
C2023      C2034   1.393       .  A
C2023      C2026   1.386       .  A
C2024      C2038   1.392       .  A
C2024      C2027   1.406       .  A
C2025      C2028   1.379       .  A
C2026      C2032   1.368       .  A
C2027      C2035   1.381       .  A
C2028      N2029   1.353       .  A
C2028      H2041   1.083       .  S
N2029      C2030   1.354       .  A
C2030      H2031   1.082       .  S
C2032      N2033   1.354       .  A
C2032      H2042   1.081       .  S
N2033      C2034   1.360       .  A
C2034      H2040   1.080       .  S
C2035      N2036   1.354       .  A
C2035      H2037   1.082       .  S
N2036      C2038   1.352       .  A
C2038      H2039   1.082       .  S
C2043      C2044   1.392       .  A
C2043      C2048   1.390       .  A
C2043      H2053   1.085       .  S
C2044      C2045   1.407       .  A
C2044      C2049   1.453       .  S
C2045      C2050   1.520       .  S
C2045      C2046   1.397       .  A
C2046      C2047   1.407       .  A
C2046      H2051   1.080       .  S
C2047      C2048   1.431       .  A
C2048      C2052   1.528       .  S
C2049      C2054   1.406       .  A
C2049      C2058   1.402       .  A
C2050      F2066   1.382       .  S
C2050      F2067   1.383       .  S
C2050      F2068   1.384       .  S
C2052      F2063   1.384       .  S
C2052      F2064   1.384       .  S
C2052      F2065   1.376       .  S
C2054      C2059   1.524       .  S
C2054      C2055   1.386       .  A
C2055      C2056   1.407       .  A
C2055      H2060   1.082       .  S
C2056      C2057   1.420       .  A
C2057      C2061   1.520       .  S
C2057      C2058   1.400       .  A
C2058      H2062   1.085       .  S
C2059      F2072   1.385       .  S
C2059      F2073   1.381       .  S
C2059      F2074   1.383       .  S
C2061      F2069   1.384       .  S
C2061      F2070   1.379       .  S
C2061      F2071   1.382       .  S
C2075      C2076   1.397       .  A
C2075      C2080   1.396       .  A
C2075      H2085   1.086       .  S
C2076      C2077   1.403       .  A
C2076      C2081   1.452       .  S
C2077      C2082   1.523       .  S
C2077      C2388   1.392       .  A
C2078      C2387   1.392       .  A
C2078      C2079   1.414       .  A
C2078      H2083   1.080       .  S
C2079      C2390   1.425       .  A
C2080      C2394   1.523   1_554  S
C2080      C2389   1.425   1_554  A
C2081      C2086   1.402       .  A
C2081      C2090   1.393       .  A
C2082      F2098   1.383       .  S
C2082      F2099   1.381       .  S
C2082      F2100   1.385       .  S
C2084      C2390   1.523       .  S
C2084      F2095   1.383       .  S
C2084      F2096   1.385       .  S
C2084      F2097   1.378       .  S
C2086      C2091   1.523       .  S
C2086      C2087   1.393       .  A
C2087      C2088   1.414       .  A
C2087      H2092   1.078       .  S
C2088      C2089   1.432       .  A
C2089      C2093   1.529       .  S
C2089      C2090   1.394       .  A
C2090      H2094   1.086       .  S
C2091      F2104   1.385       .  S
C2091      F2105   1.383       .  S
C2091      F2106   1.381       .  S
C2093      F2101   1.385       .  S
C2093      F2102   1.376       .  S
C2093      F2103   1.383       .  S
C2107      C2108   1.389       .  A
C2107      C2112   1.392       .  A
C2107      H2117   1.086       .  S
C2108      C2109   1.402       .  A
C2108      C2113   1.443       .  S
C2109      C2114   1.524       .  S
C2109      C2110   1.388       .  A
C2110      C2111   1.410       .  A
C2110      H2115   1.075       .  S
C2111      C2112   1.435       .  A
C2112      C2116   1.529       .  S
C2113      C2118   1.402       .  A
C2113      C2122   1.394       .  A
C2114      F2130   1.382       .  S
C2114      F2131   1.383       .  S
C2114      F2132   1.385       .  S
C2116      F2127   1.383       .  S
C2116      F2128   1.385       .  S
C2116      F2129   1.375       .  S
C2118      C2123   1.524       .  S
C2118      C2119   1.385       .  A
C2119      C2120   1.410       .  A
C2119      H2124   1.078       .  S
C2120      C2121   1.428       .  A
C2121      C2125   1.526       .  S
C2121      C2122   1.394       .  A
C2122      H2126   1.085       .  S
C2123      F2136   1.385       .  S
C2123      F2137   1.382       .  S
C2123      F2138   1.382       .  S
C2125      F2133   1.383       .  S
C2125      F2134   1.377       .  S
C2125      F2135   1.385       .  S
C2139      C2140   1.387       .  A
C2139      C2144   1.391       .  A
C2139      H2149   1.086       .  S
C2140      C2141   1.403       .  A
C2140      C2145   1.442       .  S
C2141      C2146   1.524       .  S
C2141      C2142   1.385       .  A
C2142      C2143   1.407       .  A
C2142      H2147   1.069       .  S
C2143      C2144   1.439       .  A
C2144      C2148   1.533       .  S
C2145      C2150   1.403       .  A
C2145      C2154   1.396       .  A
C2146      F2162   1.380       .  S
C2146      F2163   1.383       .  S
C2146      F2164   1.385       .  S
C2148      F2159   1.384       .  S
C2148      F2160   1.384       .  S
C2148      F2161   1.374       .  S
C2150      C2155   1.525       .  S
C2150      C2151   1.384       .  A
C2151      C2152   1.410       .  A
C2151      H2156   1.080       .  S
C2152      C2153   1.424       .  A
C2153      C2157   1.526       .  S
C2153      C2154   1.393       .  A
C2154      H2158   1.085       .  S
C2155      F2168   1.384       .  S
C2155      F2169   1.382       .  S
C2155      F2170   1.383       .  S
C2157      F2165   1.382       .  S
C2157      F2166   1.377       .  S
C2157      F2167   1.384       .  S
C2171      C2173   1.544       .  S
C2171      C2175   1.558       .  S
C2171      C2174   1.535       .  S
C2171      C2453   1.503       .  S
C2172      C2176   1.522       .  S
C2172      C2178   1.521       .  S
C2172      C2177   1.548       .  S
C2172      C2430   1.508       .  S
C2173      C2181   1.379       .  A
C2174      C2185   1.389       .  A
C2175      C2189   1.401       .  A
C2176      C2179   1.378       .  A
C2177      C2183   1.371       .  A
C2178      C2186   1.362       .  A
C2179      N2180   1.354   1_556  A
C2179      H2192   1.080       .  S
N2180      C2226   1.425       .  S
C2181      H2182   1.083       .  S
C2183      H2193   1.083       .  S
N2184      C2185   1.358       .  A
N2184      C2237   1.433       .  S
C2185      H2191   1.082       .  S
C2186      H2188   1.083       .  S
N2187      C2189   1.359       .  A
C2189      H2190   1.082       .  S
C2194      C2196   1.542       .  S
C2194      C2198   1.557       .  S
C2194      C2197   1.547       .  S
C2194      C2421   1.507       .  S
C2195      C2199   1.522       .  S
C2195      C2201   1.521       .  S
C2195      C2200   1.540       .  S
C2195      C2462   1.505       .  S
C2196      C2204   1.378       .  A
C2196      C2199   1.384       .  A
C2197      C2208   1.392       .  A
C2197      C2200   1.387       .  A
C2198      C2212   1.399       .  A
C2198      C2201   1.382       .  A
C2199      C2202   1.376       .  A
C2200      C2206   1.369       .  A
C2201      C2209   1.363       .  A
C2202      N2203   1.353       .  A
C2202      H2215   1.080       .  S
N2203      C2204   1.353       .  A
N2203      C2271   1.422       .  S
C2204      H2205   1.083       .  S
C2206      N2207   1.352       .  A
C2206      H2216   1.082       .  S
N2207      C2208   1.362       .  A
N2207      C2282   1.436       .  S
C2208      H2214   1.081       .  S
C2209      N2210   1.349       .  A
C2209      H2211   1.083       .  S
N2210      C2212   1.361       .  A
N2210      C2293   1.433       .  S
C2212      H2213   1.082       .  S
N2217      N2218   1.336       .  A
N2218      C2225   1.365   1_565  A
N2219      N2221   1.313       .  A
N2219      N2220   1.320       .  A
N2220      C2226   1.352       .  A
N2221      N2222   1.321       .  A
N2222      C2226   1.351       .  A
N2223      N2224   1.338       .  A
N2223     Mn2235   2.283       .  S
N2227      N2233   1.322       .  A
N2227      N2228   1.328       .  A
N2227     Mn2257   2.218       .  S
N2228      C2236   1.358       .  A
N2229      N2231   1.321       .  A
N2230      C2237   1.359       .  A
N2231      N2232   1.312       .  A
N2231     Mn2257   2.200       .  S
N2233      N2234   1.312       .  A
N2234      C2236   1.346       .  A
C2236      N2320   1.432       .  S
N2238      N2239   1.312       .  A
N2238      N2244   1.321       .  A
N2238     Mn2246   2.214       .  S
N2239      C2247   1.347       .  A
N2240      N2242   1.320       .  A
N2240      N2241   1.312       .  A
N2240     Mn2258   2.207       .  S
N2241      C2248   1.347       .  A
N2242     Mn2246   2.208       .  S
N2244      N2245   1.331       .  A
N2244     Mn2258   2.234       .  S
N2245      C2247   1.361       .  A
C2247      N2323   1.439       .  S
N2249      N2250   1.322       .  A
N2249      N2255   1.315       .  A
N2250      C2260   1.349       .  A
N2251      N2252   1.336       .  A
N2251     Mn2258   2.270       .  S
N2253      N2254   1.336       .  A
N2253     Mn2257   2.275       .  S
N2254      C2261   1.365       .  A
N2255      N2256   1.322       .  A
N2256      C2260   1.355       .  A
C2260      N2316   1.430       .  S
N2262      N2263   1.337       .  A
N2262     Mn2291   2.271       .  S
N2263      C2270   1.365   1_565  A
N2264      N2266   1.315       .  A
N2264      N2265   1.321       .  A
N2265      C2271   1.353       .  A
N2266      N2267   1.318       .  A
N2267      C2271   1.349       .  A
N2268      N2269   1.335       .  A
N2268     Mn2280   2.266       .  S
N2272      N2278   1.323       .  A
N2272      N2273   1.331       .  A
N2272     Mn2302   2.229       .  S
N2273      C2281   1.358       .  A
N2274      N2275   1.326       .  A
N2274      N2276   1.322       .  A
N2274     Mn2280   2.211       .  S
N2275      C2282   1.356       .  A
N2276      N2277   1.315       .  A
N2276     Mn2302   2.226       .  S
N2277      C2282   1.351       .  A
N2278      N2279   1.314       .  A
N2278     Mn2280   2.209       .  S
N2279      C2281   1.345       .  A
C2281      N2343   1.438       .  S
N2283      N2284   1.315       .  A
N2283      N2289   1.322       .  A
N2283     Mn2291   2.208       .  S
N2284      C2292   1.344       .  A
N2285      N2287   1.322       .  A
N2285      N2286   1.313       .  A
N2285     Mn2303   2.217       .  S
N2286      C2293   1.346       .  A
N2287      N2288   1.328       .  A
N2287     Mn2291   2.213       .  S
N2288      C2293   1.357       .  A
N2289      N2290   1.329       .  A
N2289     Mn2303   2.230       .  S
N2290      C2292   1.360       .  A
C2292      N2346   1.437       .  S
N2294      N2295   1.322       .  A
N2294      N2300   1.314       .  A
N2295      C2305   1.354       .  A
N2296      N2297   1.337       .  A
N2296     Mn2303   2.289       .  S
N2298      N2299   1.337       .  A
N2298     Mn2302   2.286       .  S
N2299      C2306   1.365       .  A
N2300      N2301   1.320       .  A
N2301      C2305   1.350       .  A
C2305      N2339   1.428       .  S
C2307      C2309   1.564       .  S
C2307      C2311   1.551       .  S
C2307      C2310   1.532       .  S
C2307      C2366   1.511       .  S
C2308      C2312   1.533       .  S
C2308      C2314   1.543       .  S
C2308      C2313   1.518       .  S
C2308      C2389   1.516       .  S
C2309      C2317   1.386       .  A
C2309      C2312   1.392       .  A
C2310      C2321   1.390       .  A
C2310      C2313   1.375       .  A
C2311      C2325   1.397       .  A
C2311      C2314   1.394       .  A
C2312      C2315   1.382       .  A
C2313      C2319   1.364       .  A
C2314      C2322   1.366       .  A
C2315      N2316   1.355       .  A
C2315      H2328   1.079       .  S
N2316      C2317   1.352       .  A
C2317      H2318   1.081       .  S
C2319      N2320   1.353       .  A
C2319      H2329   1.083       .  S
N2320      C2321   1.359       .  A
C2321      H2327   1.082       .  S
C2322      N2323   1.352       .  A
C2322      H2324   1.082       .  S
N2323      C2325   1.362       .  A
C2325      H2326   1.079       .  S
C2330      C2332   1.533       .  S
C2330      C2334   1.555       .  S
C2330      C2333   1.544       .  S
C2330      C2398   1.511       .  S
C2331      C2335   1.519       .  S
C2331      C2337   1.550       .  S
C2331      C2336   1.536       .  S
C2331      C2357   1.514       .  S
C2332      C2340   1.382       .  A
C2332      C2335   1.378       .  A
C2333      C2344   1.393       .  A
C2333      C2336   1.386       .  A
C2334      C2348   1.392       .  A
C2334      C2337   1.406       .  A
C2335      C2338   1.379       .  A
C2336      C2342   1.368       .  A
C2337      C2345   1.381       .  A
C2338      N2339   1.353       .  A
C2338      H2351   1.083       .  S
N2339      C2340   1.354       .  A
C2340      H2341   1.082       .  S
C2342      N2343   1.354       .  A
C2342      H2352   1.081       .  S
N2343      C2344   1.360       .  A
C2344      H2350   1.080       .  S
C2345      N2346   1.354       .  A
C2345      H2347   1.082       .  S
N2346      C2348   1.352       .  A
C2348      H2349   1.082       .  S
C2353      C2354   1.392       .  A
C2353      C2358   1.390       .  A
C2353      H2363   1.085       .  S
C2354      C2355   1.407       .  A
C2354      C2359   1.453       .  S
C2355      C2360   1.520       .  S
C2355      C2356   1.397       .  A
C2356      C2357   1.407       .  A
C2356      H2361   1.080       .  S
C2357      C2358   1.431       .  A
C2358      C2362   1.528       .  S
C2359      C2364   1.406       .  A
C2359      C2368   1.402       .  A
C2360      F2376   1.382       .  S
C2360      F2377   1.383       .  S
C2360      F2378   1.384       .  S
C2362      F2373   1.384       .  S
C2362      F2374   1.384       .  S
C2362      F2375   1.376       .  S
C2364      C2369   1.524       .  S
C2364      C2365   1.386       .  A
C2365      C2366   1.407       .  A
C2365      H2370   1.082       .  S
C2366      C2367   1.420       .  A
C2367      C2371   1.520       .  S
C2367      C2368   1.400       .  A
C2368      H2372   1.085       .  S
C2369      F2382   1.385       .  S
C2369      F2383   1.381       .  S
C2369      F2384   1.383       .  S
C2371      F2379   1.384       .  S
C2371      F2380   1.379       .  S
C2371      F2381   1.382       .  S
C2385      C2386   1.397       .  A
C2385      C2390   1.396       .  A
C2385      H2395   1.086       .  S
C2386      C2387   1.403       .  A
C2386      C2391   1.452       .  S
C2387      C2392   1.523       .  S
C2388      C2389   1.414   1_554  A
C2388      H2393   1.080   1_554  S
C2391      C2396   1.402       .  A
C2391      C2400   1.393       .  A
C2392      F2408   1.383       .  S
C2392      F2409   1.381       .  S
C2392      F2410   1.385       .  S
C2394      F2405   1.383   1_556  S
C2394      F2406   1.385   1_556  S
C2394      F2407   1.378       .  S
C2396      C2401   1.523       .  S
C2396      C2397   1.393       .  A
C2397      C2398   1.414       .  A
C2397      H2402   1.078       .  S
C2398      C2399   1.432       .  A
C2399      C2403   1.529       .  S
C2399      C2400   1.394       .  A
C2400      H2404   1.086       .  S
C2401      F2414   1.385       .  S
C2401      F2415   1.383       .  S
C2401      F2416   1.381       .  S
C2403      F2411   1.385       .  S
C2403      F2412   1.376       .  S
C2403      F2413   1.383       .  S
C2417      C2418   1.389       .  A
C2417      C2422   1.392       .  A
C2417      H2427   1.086       .  S
C2418      C2419   1.402       .  A
C2418      C2423   1.443       .  S
C2419      C2424   1.524       .  S
C2419      C2420   1.388       .  A
C2420      C2421   1.410       .  A
C2420      H2425   1.075       .  S
C2421      C2422   1.435       .  A
C2422      C2426   1.529       .  S
C2423      C2428   1.402       .  A
C2423      C2432   1.394       .  A
C2424      F2440   1.382       .  S
C2424      F2441   1.383       .  S
C2424      F2442   1.385       .  S
C2426      F2437   1.383       .  S
C2426      F2438   1.385       .  S
C2426      F2439   1.375       .  S
C2428      C2433   1.524       .  S
C2428      C2429   1.385       .  A
C2429      C2430   1.410       .  A
C2429      H2434   1.078       .  S
C2430      C2431   1.428       .  A
C2431      C2435   1.526       .  S
C2431      C2432   1.394       .  A
C2432      H2436   1.085       .  S
C2433      F2446   1.385       .  S
C2433      F2447   1.382       .  S
C2433      F2448   1.382       .  S
C2435      F2443   1.383       .  S
C2435      F2444   1.377       .  S
C2435      F2445   1.385       .  S
C2449      C2450   1.387       .  A
C2449      C2454   1.391       .  A
C2449      H2459   1.086       .  S
C2450      C2451   1.403       .  A
C2450      C2455   1.442       .  S
C2451      C2456   1.524       .  S
C2451      C2452   1.385       .  A
C2452      C2453   1.407       .  A
C2452      H2457   1.069       .  S
C2453      C2454   1.439       .  A
C2454      C2458   1.533       .  S
C2455      C2460   1.403       .  A
C2455      C2464   1.396       .  A
C2456      F2472   1.380       .  S
C2456      F2473   1.383       .  S
C2456      F2474   1.385       .  S
C2458      F2469   1.384       .  S
C2458      F2470   1.384       .  S
C2458      F2471   1.374       .  S
C2460      C2465   1.525       .  S
C2460      C2461   1.384       .  A
C2461      C2462   1.410       .  A
C2461      H2466   1.080       .  S
C2462      C2463   1.424       .  A
C2463      C2467   1.526       .  S
C2463      C2464   1.393       .  A
C2464      H2468   1.085       .  S
C2465      F2478   1.384       .  S
C2465      F2479   1.382       .  S
C2465      F2480   1.383       .  S
C2467      F2475   1.382       .  S
C2467      F2476   1.377       .  S
C2467      F2477   1.384       .  S
