geometry optimzed in LAMMPS
_audit_creation_date              2020-11-30 
_audit_creation_method            'lammps2cif' 
_symmetry_space_group_name_H-M    'P1' 
_symmetry_Int_Tables_number       1 
_symmetry_cell_setting            triclinic 
loop_ 
_symmetry_equiv_pos_as_xyz 
  x,y,z 
_cell_length_a                    25.41809516 
_cell_length_b                    25.418171317175382 
_cell_length_c                    25.41932026426169 
_cell_angle_alpha                 90.00842736025832 
_cell_angle_beta                  89.98947032285997 
_cell_angle_gamma                 89.99650921425396 
loop_ 
_atom_site_label 
_atom_site_type_symbol 
_atom_site_fract_x 
_atom_site_fract_y 
_atom_site_fract_z 
_atom_site_charge 
C1          C  0.14617079  0.73524486  0.95498865     0.79100
N2          N  0.17234911  0.73721499  0.00105663    -0.79200
C3          C  0.14637744  0.73487988  0.04721413     0.81500
N4          N  0.09271637  0.73111026  0.04744512    -0.79200
C5          C  0.06535581  0.72981919  0.00115737     0.81600
N6          N  0.09257404  0.73138735  0.95486450    -0.80900
C7          C  0.35281890  0.61032263  0.04726782     0.79100
N8          N  0.33646310  0.63077243  0.00074071    -0.79200
C9          C  0.35303377  0.61009267  0.95435978     0.81500
N10         N  0.38776150  0.56992096  0.95456340    -0.79200
C11         C  0.40593027  0.55101148  0.00100382     0.81600
N12         N  0.38753250  0.57006860  0.04735042    -0.80900
C13         C  0.92562591  0.22699967  0.04588415     0.79100
N14         N  0.97924688  0.23060739  0.04600936    -0.79200
C15         C  0.00655363  0.23143903  0.99973888     0.81500
N16         N  0.97924963  0.22947447  0.95343712    -0.79200
C17         C  0.92557629  0.22572689  0.95367116     0.81600
N18         N  0.89951818  0.22430348  0.99981830    -0.80900
C19         C  0.71661129  0.34821218  0.95363154     0.79100
N20         N  0.68197901  0.38852241  0.95401887    -0.79200
C21         C  0.66456076  0.40788275  0.00062593     0.81500
N22         N  0.68366372  0.38918150  0.04682802    -0.79200
C23         C  0.71836364  0.34893355  0.04657417     0.81600
N24         N  0.73388901  0.32798634  0.99995183    -0.80900
C25         C  0.79508843  0.93344839  0.11107005     0.79100
N26         N  0.79677561  0.97958084  0.13715131    -0.79200
C27         C  0.79477459  0.02570713  0.11109160     0.81500
N28         N  0.79173623  0.02588632  0.05740166    -0.79200
C29         C  0.79083541  0.97955927  0.03009800     0.81600
N30         N  0.79194492  0.93326319  0.05741021    -0.80900
C31         C  0.66722815  0.02662944  0.31873577     0.79100
N32         N  0.68773505  0.98002740  0.30271472    -0.79200
C33         C  0.66710149  0.93375037  0.31952841     0.81500
N34         N  0.62680729  0.93411454  0.35414792    -0.79200
C35         C  0.60779888  0.98067663  0.37199524     0.81600
N36         N  0.62690414  0.02691646  0.35337485    -0.80900
C37         C  0.27771812  0.02555458  0.88991492     0.79100
N38         N  0.27546721  0.97935483  0.86399366    -0.79200
C39         C  0.27665734  0.93329019  0.89022991     0.81500
N40         N  0.27955687  0.93325657  0.94391260    -0.79200
C41         C  0.28090132  0.97966052  0.97105477     0.81600
N42         N  0.28048673  0.02588142  0.94359488    -0.80900
C43         C  0.40398847  0.93247056  0.68000937     0.79100
N44         N  0.38386613  0.97896697  0.69689036    -0.79200
C45         C  0.40499698  0.02540947  0.68114316     0.81500
N46         N  0.44546419  0.02531443  0.64667621    -0.79200
C47         C  0.46410783  0.97889634  0.62796823     0.81600
N48         N  0.44447302  0.93248208  0.64557919    -0.80900
C49         C  0.92562382  0.73380537  0.04723330     0.79100
N50         N  0.89943212  0.73483953  0.00116756    -0.79200
C51         C  0.92540779  0.73244537  0.95503882     0.81500
N52         N  0.97913096  0.72958131  0.95481400    -0.79200
C53         C  0.00651698  0.72920353  0.00111674     0.81600
N54         N  0.97927970  0.73082032  0.04740694    -0.80900
C55         C  0.71492255  0.61037260  0.04769612     0.79100
N56         N  0.68042217  0.56991555  0.04765581    -0.79200
C57         C  0.66259329  0.55047364  0.00120199     0.81500
N58         N  0.68114681  0.56927919  0.95479494    -0.79200
C59         C  0.71572091  0.60963146  0.95472621     0.81600
N60         N  0.73168520  0.63055640  0.00119429    -0.80900
C61         C  0.14649593  0.22716230  0.95400105     0.79100
N62         N  0.17246787  0.22465649  0.00014114    -0.79200
C63         C  0.14631578  0.22615491  0.04622648     0.81500
N64         N  0.09263623  0.22975694  0.04629962    -0.79200
C65         C  0.06543042  0.23152435  0.99991880     0.81600
N66         N  0.09284757  0.23064808  0.95369848    -0.80900
C67         C  0.35449582  0.34965006  0.95349099     0.79100
N68         N  0.38906792  0.39004475  0.95346425    -0.79200
C69         C  0.40759382  0.40892933  0.99985832     0.81500
N70         N  0.38969810  0.38967310  0.04627258    -0.79200
C71         C  0.35513771  0.34936826  0.04639411     0.81600
N72         N  0.33841236  0.32893961  0.99998951    -0.80900
C73         C  0.79181459  0.93296196  0.89039091     0.79100
N74         N  0.79361025  0.97897059  0.86409401    -0.79200
C75         C  0.79293827  0.02522031  0.89000805     0.81500
N76         N  0.79100503  0.02563705  0.94375104    -0.79200
C77         C  0.79004871  0.97943232  0.97125311     0.81600
N78         N  0.78997471  0.93301198  0.94411078    -0.80900
C79         C  0.66664276  0.02535954  0.67973856     0.79100
N80         N  0.68706552  0.97899244  0.69661671    -0.79200
C81         C  0.66625223  0.93240742  0.68086773     0.81500
N82         N  0.62580964  0.93223077  0.64637929    -0.79200
C83         C  0.60686237  0.97852730  0.62768324     0.81600
N84         N  0.62617537  0.02507392  0.64531383    -0.80900
C85         C  0.27832689  0.02639525  0.11066287     0.79100
N86         N  0.28048653  0.02635082  0.05695805    -0.79200
C87         C  0.28137976  0.97991260  0.02987823     0.81500
N88         N  0.28121998  0.93373743  0.05742832    -0.79200
C89         C  0.27917951  0.93418583  0.11116012     0.81600
N90         N  0.27740827  0.98041222  0.13700855    -0.80900
C91         C  0.40618829  0.93378164  0.32033797     0.79100
N92         N  0.44652555  0.93389894  0.35495063    -0.79200
C93         C  0.46534947  0.98035889  0.37338480     0.81500
N94         N  0.44602098  0.02674996  0.35537452    -0.79200
C95         C  0.40570083  0.02674533  0.32077494     0.81600
N96         N  0.38540605  0.98023388  0.30415380    -0.80900
C97         C  0.98935200  0.08972252  0.75670029     0.79100
N98         N  0.03543810  0.11590929  0.75751747    -0.79200
C99         C  0.08155881  0.08987036  0.75553636     0.81500
N100        N  0.08172644  0.03611479  0.75331800    -0.79200
C101        C  0.03538754  0.00876903  0.75319817     0.81600
N102        N  0.98913099  0.03605327  0.75437133    -0.80900
C103        C  0.98959054  0.29921937  0.63076128     0.79100
N104        N  0.03603021  0.28229743  0.65095015    -0.79200
C105        C  0.08253038  0.29842386  0.63022320     0.81500
N106        N  0.08254658  0.33338258  0.59019905    -0.79200
C107        C  0.03617676  0.35214119  0.57152492     0.81600
N108        N  0.98970844  0.33412583  0.59068852    -0.80900
C109        C  0.08117472  0.86895999  0.75868169     0.79100
N110        N  0.08146235  0.92260208  0.75537856    -0.79200
C111        C  0.03522496  0.94993879  0.75382715     0.81500
N112        N  0.98885605  0.92266472  0.75445381    -0.79200
C113        C  0.98899222  0.86896963  0.75764156     0.81600
N114        N  0.03505596  0.84290823  0.76007030    -0.80900
C115        C  0.98867429  0.65962022  0.63114354     0.79100
N116        N  0.98864198  0.62493714  0.59084176    -0.79200
C117        C  0.03504416  0.60638084  0.57198495     0.81500
N118        N  0.08146615  0.62434848  0.59123852    -0.79200
C119        C  0.08153064  0.65900708  0.63150735     0.81600
N120        N  0.03512684  0.67574840  0.65184030    -0.80900
C121        C  0.08241706  0.86978307  0.24600140     0.79100
N122        N  0.08266529  0.92344932  0.24816438    -0.79200
C123        C  0.03643217  0.95079213  0.24833088     0.81500
N124        N  0.99006140  0.92355455  0.24723768    -0.79200
C125        C  0.99021018  0.86981916  0.24497068     0.81600
N126        N  0.03631563  0.84369227  0.24412085    -0.80900
C127        C  0.08233092  0.66070938  0.37075751     0.79100
N128        N  0.08240797  0.62579665  0.41086209    -0.79200
C129        C  0.03603758  0.60704487  0.42962301     0.81500
N130        N  0.98956834  0.62503113  0.41050557    -0.79200
C131        C  0.98940506  0.65991320  0.37044927     0.81600
N132        N  0.03580615  0.67683217  0.35015365    -0.80900
C133        C  0.99103337  0.09065346  0.24321410     0.79100
N134        N  0.99057769  0.03702573  0.24650279    -0.79200
C135        C  0.03672801  0.00955321  0.24758642     0.81500
N136        N  0.08316911  0.03663588  0.24640741    -0.79200
C137        C  0.08317950  0.09028788  0.24300624     0.81600
N138        N  0.03720153  0.11653249  0.24113542    -0.80900
C139        C  0.99053163  0.29985175  0.37018294     0.79100
N140        N  0.99029965  0.33454725  0.41045120    -0.79200
C141        C  0.03654937  0.35360688  0.42915166     0.81500
N142        N  0.08314159  0.33610955  0.40975432    -0.79200
C143        C  0.08342634  0.30142847  0.36946388     0.81600
N144        N  0.03709682  0.28422492  0.34931615    -0.80900
C145        C  0.29083125  0.52632895  0.39010425     0.79100
N146        N  0.29288879  0.48035208  0.36378007    -0.79200
C147        C  0.29079983  0.43412186  0.38960767     0.81500
N148        N  0.28721007  0.43367369  0.44325694    -0.79200
C149        C  0.28581782  0.47982491  0.47079913     0.81600
N150        N  0.28711836  0.52625718  0.44373849    -0.80900
C151        C  0.16701929  0.43395605  0.18146912     0.79100
N152        N  0.18784750  0.48046568  0.19740719    -0.79200
C153        C  0.16747246  0.52689214  0.18063011     0.81500
N154        N  0.12715552  0.52675027  0.14605122    -0.79200
C155        C  0.10785258  0.48028787  0.12824144     0.81600
N156        N  0.12664957  0.43392294  0.14690336    -0.80900
O157        O  0.22725549  0.74614129  0.09233505    -0.87600
O158        O  0.17457274  0.68017528  0.37222463    -0.87800
O159        O  0.16605225  0.61938126  0.19911285    -0.89500
O160        O  0.12739616  0.78908928  0.23565411    -0.88200
O161        O  0.17353233  0.86322318  0.25885218    -0.87800
O162        O  0.24191670  0.57086083  0.20725391    -0.89200
O163        O  0.12646644  0.68683369  0.29598049    -0.87700
O164        O  0.15323376  0.72253929  0.13843813    -0.87300
Zr165      Zr  0.18485996  0.71120588  0.22656332     2.84300
O166        O  0.21305726  0.75922213  0.29968910    -1.09200
O167        O  0.25753323  0.68213222  0.17837729    -1.10000
C168        C  0.17746296  0.73481432  0.09589842     1.05500
C169        C  0.13126630  0.67711581  0.34526280     1.05400
C170        C  0.19290398  0.57591537  0.19663168     1.08400
C171        C  0.13102765  0.83888388  0.24665977     1.06200
H172        H  0.21718511  0.62755275  0.29173043     0.31700
O173        O  0.23733028  0.65747426  0.27976953    -1.30200
H174        H  0.21039930  0.80614006  0.17560718     0.31400
O175        O  0.23237974  0.78424000  0.19752724    -1.31900
O176        O  0.34452939  0.71057660  0.40978351    -0.87600
O177        O  0.39731816  0.78249334  0.13150337    -0.89100
O178        O  0.30311266  0.57175153  0.30982681    -0.87700
O179        O  0.23439863  0.85110336  0.36214664    -0.87800
O180        O  0.26976714  0.88936876  0.19234540    -0.87500
O181        O  0.33482770  0.60953996  0.13964335    -0.87300
O182        O  0.44479815  0.67097338  0.26881308    -0.87700
O183        O  0.40740427  0.84121622  0.30190753    -0.87100
O184        O  0.39888794  0.59755919  0.24320437    -0.88200
O185        O  0.33149642  0.88975168  0.29414053    -0.87300
O186        O  0.27738253  0.61739521  0.38340166    -0.87700
O187        O  0.32834430  0.68569135  0.09132923    -0.87500
O188        O  0.29298947  0.84320343  0.11824309    -0.87100
O189        O  0.24277000  0.77528473  0.41069745    -0.87500
O190        O  0.41834513  0.73566932  0.36418021    -0.87800
O191        O  0.44597746  0.77385358  0.20725361    -0.89200
Zr192      Zr  0.26651134  0.70577364  0.35228250     2.83100
Zr193      Zr  0.30535297  0.75523351  0.15000357     2.83500
Zr194      Zr  0.31069434  0.62937479  0.23191989     2.84100
Zr195      Zr  0.26165645  0.83169912  0.27046614     2.83400
Zr196      Zr  0.38731894  0.74926522  0.27607733     2.84200
O197        O  0.33482272  0.80316752  0.22277357    -1.09700
O198        O  0.33963283  0.67648229  0.30509694    -1.09200
C199        C  0.39427459  0.72173848  0.40630493     1.05400
C200        C  0.44085344  0.78468454  0.15827100     1.08100
C201        C  0.29087900  0.57511732  0.35935653     1.05600
C202        C  0.23211664  0.82432948  0.40564601     1.06000
C203        C  0.28046628  0.88569439  0.14243638     1.05600
C204        C  0.33744552  0.63630688  0.09619919     1.05100
C205        C  0.44127650  0.62137454  0.25675643     1.05500
C206        C  0.38066185  0.88474247  0.30427865     1.05000
H207        H  0.38899455  0.68962535  0.18233068     0.31700
O208        O  0.35913050  0.70174168  0.20249012    -1.30800
H209        H  0.32692662  0.79888540  0.35429425     0.31700
O210        O  0.31480551  0.77893651  0.32430621    -1.32200
C211        C  0.42598808  0.23623648  0.45407171     0.79100
N212        N  0.47967620  0.23359858  0.45379190    -0.79200
C213        C  0.50705354  0.23303210  0.50003813     0.81500
N214        N  0.47981417  0.23412531  0.54641984    -0.79200
C215        C  0.42610813  0.23686226  0.54634457     0.81600
N216        N  0.39996308  0.23818169  0.50023766    -0.80900
C217        C  0.21788148  0.11011824  0.45360343     0.79100
N218        N  0.18303096  0.06996260  0.45347624    -0.79200
C219        C  0.16429359  0.05116019  0.49981596     0.81500
N220        N  0.18225593  0.07023214  0.54628149    -0.79200
C221        C  0.21709098  0.11030497  0.54649613     0.81600
N222        N  0.23399038  0.13070889  0.50014196    -0.80900
O223        O  0.26833300  0.07049115  0.80888945    -0.87600
O224        O  0.33592777  0.35072293  0.86110542    -0.87800
O225        O  0.39676050  0.17758262  0.87088449    -0.89500
O226        O  0.22716909  0.21509082  0.90901502    -0.88200
O227        O  0.15327277  0.23877001  0.86276544    -0.87800
O228        O  0.44512328  0.18486680  0.79480574    -0.89200
O229        O  0.32877096  0.27467884  0.90950237    -0.87700
O230        O  0.29214773  0.11656869  0.88285711    -0.87300
Zr231      Zr  0.30499645  0.20478379  0.85141736     2.84300
O232        O  0.25729363  0.27786321  0.82270738    -1.09200
O233        O  0.33428407  0.15643999  0.77883047    -1.10000
C234        C  0.27919768  0.07412391  0.85872935     1.05500
C235        C  0.33853729  0.32394407  0.90454966     1.05400
C236        C  0.44016049  0.17471074  0.84395573     1.08400
C237        C  0.17749653  0.22678147  0.90536804     1.06200
H238        H  0.38866152  0.27004428  0.81888810     0.31700
O239        O  0.35876632  0.25802068  0.79874679    -1.30200
H240        H  0.20982635  0.15405948  0.82587928     0.31400
O241        O  0.23194083  0.17578869  0.80391106    -1.31900
O242        O  0.30288953  0.38810644  0.69104270    -0.87600
O243        O  0.23485480  0.10904799  0.63898067    -0.89100
O244        O  0.44466646  0.28801607  0.73304663    -0.87700
O245        O  0.16551188  0.34050642  0.80159845    -0.87800
O246        O  0.12677228  0.17076508  0.76611171    -0.87500
O247        O  0.40664781  0.11789712  0.69976536    -0.87300
O248        O  0.34533544  0.24761956  0.59153404    -0.87700
O249        O  0.17499618  0.27969369  0.62895796    -0.87100
O250        O  0.41894739  0.22254488  0.63743380    -0.88200
O251        O  0.12647549  0.27228313  0.70489339    -0.87300
O252        O  0.39868458  0.36184223  0.75747670    -0.87700
O253        O  0.33056007  0.06968402  0.70766015    -0.87500
O254        O  0.17268908  0.09682903  0.74192367    -0.87100
O255        O  0.24152526  0.38896725  0.79450849    -0.87500
O256        O  0.27851239  0.34206844  0.61727303    -0.87800
O257        O  0.24290902  0.18495852  0.59050253    -0.89200
Zr258      Zr  0.31051703  0.33060001  0.76920104     2.83100
Zr259      Zr  0.26105939  0.12823712  0.73094444     2.83500
Zr260      Zr  0.38712661  0.20998137  0.72555681     2.84100
Zr261      Zr  0.18467323  0.24872479  0.77447644     2.83400
Zr262      Zr  0.26700247  0.25404523  0.64893082     2.84200
O263        O  0.21302838  0.20083680  0.70136011    -1.09700
O264        O  0.33996339  0.28314348  0.69634748    -1.09200
C265        C  0.29127659  0.38452300  0.64135627     1.05400
C266        C  0.23262245  0.13586452  0.59551394     1.08100
C267        C  0.44107011  0.33772528  0.74449776     1.05600
C268        C  0.19237840  0.38389723  0.80471382     1.06000
C269        C  0.13024338  0.12099097  0.75470283     1.05600
C270        C  0.37971935  0.07449034  0.69742765     1.05100
C271        C  0.39504164  0.23610995  0.59507510     1.05500
C272        C  0.13149498  0.28224449  0.65571832     1.05000
H273        H  0.32681726  0.16057198  0.64733554     0.31700
O274        O  0.31466954  0.18065393  0.67723999    -1.30800
H275        H  0.21721470  0.33237327  0.70919507     0.31700
O276        O  0.23731307  0.30246194  0.72124224    -1.32200
C277        C  0.42519766  0.72040466  0.45490198     0.79100
N278        N  0.47885080  0.72354152  0.45482164    -0.79200
C279        C  0.50601930  0.72493154  0.50116521     0.81500
N280        N  0.47854306  0.72436428  0.54741694    -0.79200
C281        C  0.42483213  0.72135116  0.54707805     0.81600
N282        N  0.39894817  0.71902978  0.50091939    -0.80900
C283        C  0.21569668  0.84965485  0.54754804     0.79100
N284        N  0.18098562  0.88993409  0.54748160    -0.79200
C285        C  0.16284986  0.90900985  0.50101597     0.81500
N286        N  0.18126634  0.89002653  0.45465049    -0.79200
C287        C  0.21597147  0.84980638  0.45462879     0.81600
N288        N  0.23229752  0.82923057  0.50110030    -0.80900
C289        C  0.28879671  0.52542964  0.61083932     0.79100
N290        N  0.28569048  0.52575479  0.55715974    -0.79200
C291        C  0.28551018  0.47954956  0.52965811     0.81500
N292        N  0.28755052  0.43316938  0.55678610    -0.79200
C293        C  0.29078453  0.43324020  0.61046555     0.81600
N294        N  0.29162362  0.47927675  0.63672468    -0.80900
C295        C  0.16669565  0.43274084  0.82102650     0.79100
N296        N  0.18668370  0.47932490  0.80431246    -0.79200
C297        C  0.16563916  0.52566584  0.82047702     0.81500
N298        N  0.12542061  0.52538861  0.85522869    -0.79200
C299        C  0.10690051  0.47885725  0.87376570     0.81600
N300        N  0.12643402  0.43254892  0.85572281    -0.80900
O301        O  0.22654558  0.74707148  0.90966136    -0.87600
O302        O  0.17381680  0.67759910  0.63016847    -0.87800
O303        O  0.12611360  0.78819768  0.76945863    -0.89500
O304        O  0.16378382  0.61809339  0.80147674    -0.88200
O305        O  0.23996710  0.56994465  0.79409383    -0.87800
O306        O  0.17197323  0.86181497  0.74424826    -0.89200
O307        O  0.12537766  0.68548741  0.70613908    -0.87700
O308        O  0.15286427  0.72172136  0.86398631    -0.87300
Zr309      Zr  0.18358269  0.71003639  0.77549346     2.84300
O310        O  0.23615895  0.65644597  0.72208588    -1.09200
O311        O  0.23100011  0.78305034  0.80452544    -1.10000
C312        C  0.17696962  0.73513795  0.90626167     1.05500
C313        C  0.13042606  0.67502097  0.65704687     1.05400
C314        C  0.12970874  0.83787970  0.75794330     1.08400
C315        C  0.19079237  0.57475921  0.80418001     1.06200
H316        H  0.18164409  0.77010931  0.68217894     0.31700
O317        O  0.21161756  0.75801775  0.70216875    -1.30200
H318        H  0.24414949  0.66078573  0.85339501     0.31400
O319        O  0.25624824  0.68083816  0.82346281    -1.31900
O320        O  0.34360102  0.71216227  0.59186954    -0.87600
O321        O  0.39630291  0.77935008  0.87126754    -0.89100
O322        O  0.23404109  0.85070105  0.63994655    -0.87700
O323        O  0.29988711  0.57042418  0.69172608    -0.87800
O324        O  0.33541187  0.60882530  0.86181383    -0.87500
O325        O  0.26610989  0.88806712  0.80957673    -0.87300
O326        O  0.40502880  0.83997311  0.69826798    -0.87700
O327        O  0.44368731  0.67035169  0.73477270    -0.87100
O328        O  0.32931571  0.88869749  0.70683626    -0.88200
O329        O  0.39769235  0.59635631  0.75857387    -0.87300
O330        O  0.24163784  0.77474711  0.59147743    -0.87700
O331        O  0.29128558  0.84229258  0.88321211    -0.87500
O332        O  0.32763422  0.68483897  0.91021705    -0.87100
O333        O  0.27596761  0.61655562  0.61783696    -0.87500
O334        O  0.41765163  0.73564007  0.63796071    -0.87800
O335        O  0.44455826  0.77213577  0.79513153    -0.89200
Zr336      Zr  0.26538422  0.70476604  0.64945967     2.83100
Zr337      Zr  0.30414831  0.75412553  0.85169878     2.83500
Zr338      Zr  0.26004288  0.83044956  0.73157133     2.84100
Zr339      Zr  0.30937904  0.62803622  0.76977536     2.83400
Zr340      Zr  0.38593701  0.74833388  0.72587067     2.84200
O341        O  0.35771379  0.70060535  0.79912621    -1.09700
O342        O  0.31328890  0.77785377  0.67775335    -1.09200
C343        C  0.39351544  0.72283885  0.59553915     1.05400
C344        C  0.43972230  0.78189002  0.84438708     1.08100
C345        C  0.23158842  0.82395084  0.59648459     1.05600
C346        C  0.28837986  0.57402389  0.64199135     1.06000
C347        C  0.33764436  0.63566933  0.90528338     1.05600
C348        C  0.27755633  0.88456984  0.85926533     1.05100
C349        C  0.37831299  0.88351916  0.69598401     1.05500
C350        C  0.44021124  0.62056969  0.74608540     1.05000
H351        H  0.35361043  0.83231241  0.79125183     0.31700
O352        O  0.33352956  0.80236745  0.77922622    -1.30800
H353        H  0.36021126  0.65334198  0.67491168     0.31700
O354        O  0.33836948  0.67542188  0.69678388    -1.32200
C355        C  0.78163674  0.43349708  0.39006894     0.79100
N356        N  0.78524734  0.43328477  0.44369653    -0.79200
C357        C  0.78672918  0.47955462  0.47101213     0.81500
N358        N  0.78559985  0.52586889  0.44373012    -0.79200
C359        C  0.78207165  0.52570349  0.39007020     0.81600
N360        N  0.77981782  0.47960830  0.36399250    -0.80900
C361        C  0.90639297  0.52674706  0.18218585     0.79100
N362        N  0.88589244  0.48017501  0.19833822    -0.79200
C363        C  0.90642375  0.43383144  0.18152516     0.81500
N364        N  0.94657789  0.43411569  0.14674116    -0.79200
C365        C  0.96554618  0.48063187  0.12873250     0.81600
N366        N  0.94656530  0.52693189  0.14736925    -0.80900
C367        C  0.58226268  0.59064315  0.25592572     0.79100
N368        N  0.53607708  0.61654072  0.25840978    -0.79200
C369        C  0.49002836  0.59032887  0.25679223     0.81500
N370        N  0.49003075  0.53663816  0.25316756    -0.79200
C371        C  0.53646748  0.50948326  0.25151605     0.81600
N372        N  0.58264199  0.53699018  0.25242863    -0.80900
C373        C  0.58276391  0.79925734  0.13149504     0.79100
N374        N  0.53632513  0.78374028  0.15282071    -0.79200
C375        C  0.48983770  0.80052803  0.13263096     0.81500
N376        N  0.48985370  0.83463083  0.09191917    -0.79200
C377        C  0.53624411  0.85201977  0.07208253     0.81600
N378        N  0.58267379  0.83337422  0.09074394    -0.80900
O379        O  0.80521104  0.88836030  0.19188576    -0.87600
O380        O  0.73412690  0.60919814  0.14009152    -0.87800
O381        O  0.84511369  0.74601202  0.09221628    -0.89500
O382        O  0.67519719  0.78038264  0.12986930    -0.88200
O383        O  0.62695804  0.77309583  0.20601113    -0.87800
O384        O  0.91888888  0.72191676  0.13842324    -0.89200
O385        O  0.74154944  0.68515011  0.09160761    -0.87700
O386        O  0.78024044  0.84253910  0.11815373    -0.87300
Zr387      Zr  0.76713124  0.75446225  0.14967286     2.84300
O388        O  0.71342875  0.70144638  0.20247153    -1.09200
O389        O  0.84011721  0.78373631  0.19715611    -1.10000
C390        C  0.79393164  0.88481367  0.14214007     1.05500
C391        C  0.73114924  0.63602421  0.09666605     1.05400
C392        C  0.89476780  0.73438614  0.09589773     1.08400
C393        C  0.63181410  0.78303722  0.15680622     1.06200
H394        H  0.82706302  0.66111746  0.14826326     0.31700
O395        O  0.81504947  0.68132844  0.17811373    -1.30200
H396        H  0.71788517  0.83280250  0.21004062     0.31400
O397        O  0.73784750  0.80284016  0.22221949    -1.31900
O398        O  0.77067378  0.57086327  0.30936978    -0.87600
O399        O  0.83685418  0.85044845  0.36240059    -0.89100
O400        O  0.90753746  0.61900416  0.20121090    -0.87700
O401        O  0.62721471  0.67153026  0.26681209    -0.87800
O402        O  0.66575665  0.84126721  0.30172786    -0.87500
O403        O  0.94508485  0.78904109  0.23379746    -0.87300
O404        O  0.89692678  0.67833110  0.37167654    -0.87700
O405        O  0.72704848  0.71349004  0.40999303    -0.87100
O406        O  0.94554288  0.68615655  0.29582290    -0.88200
O407        O  0.65327402  0.73786422  0.36395161    -0.87300
O408        O  0.83139551  0.57068512  0.20783633    -0.87700
O409        O  0.89913077  0.86279034  0.25839714    -0.87500
O410        O  0.74184228  0.88955767  0.29412822    -0.87100
O411        O  0.67334120  0.59757198  0.24303263    -0.87500
O412        O  0.79422598  0.61692174  0.38342009    -0.87800
O413        O  0.82885155  0.77446906  0.41076558    -0.89200
Zr414      Zr  0.76160751  0.62879003  0.23168527     2.83100
Zr415      Zr  0.81106219  0.83106932  0.27024863     2.83500
Zr416      Zr  0.88743847  0.71089021  0.22660612     2.84100
Zr417      Zr  0.68505851  0.74930890  0.27564790     2.83400
Zr418      Zr  0.80514350  0.70526408  0.35226918     2.84200
O419        O  0.75756529  0.77865118  0.32399489    -1.09700
O420        O  0.83463550  0.65718269  0.27965978    -1.09200
C421        C  0.78204320  0.57440093  0.35911938     1.05400
C422        C  0.83919453  0.82356703  0.40584345     1.08100
C423        C  0.88069578  0.57561771  0.19829257     1.05600
C424        C  0.63083422  0.62177069  0.25549336     1.06000
C425        C  0.69265938  0.88466670  0.30413467     1.05600
C426        C  0.94153437  0.83876805  0.24528640     1.05100
C427        C  0.94042164  0.67577933  0.34489682     1.05500
C428        C  0.67728378  0.72487122  0.40643349     1.05000
H429        H  0.88904737  0.77063766  0.32004195     0.31700
O430        O  0.85914711  0.75861330  0.29990181    -1.30800
H431        H  0.71033046  0.65417628  0.32658597     0.31700
O432        O  0.73228751  0.67615120  0.30470527    -1.32200
C433        C  0.64584411  0.72210854  0.54734476     0.79100
N434        N  0.59213283  0.72431693  0.54751032    -0.79200
C435        C  0.56488801  0.72560254  0.50119473     0.81500
N436        N  0.59230446  0.72577883  0.45488832    -0.79200
C437        C  0.64605950  0.72370292  0.45509394     0.81600
N438        N  0.67204490  0.72154529  0.50124703    -0.80900
C439        C  0.85653433  0.84801772  0.54778009     0.79100
N440        N  0.89138166  0.88815429  0.54771928    -0.79200
C441        C  0.90928622  0.90746492  0.50126112     0.81500
N442        N  0.89048484  0.88886692  0.45488656    -0.79200
C443        C  0.85558625  0.84880654  0.45485288     0.81600
N444        N  0.83954763  0.82794968  0.50131302    -0.80900
C445        C  0.58129776  0.58968286  0.74441178     0.79100
N446        N  0.58160548  0.53601135  0.74728843    -0.79200
C447        C  0.53539768  0.50861091  0.74874051     0.81500
N448        N  0.48899599  0.53585088  0.74832429    -0.79200
C449        C  0.48902001  0.58957558  0.74553021     0.81600
N450        N  0.53510550  0.61572768  0.74329137    -0.80900
C451        C  0.48874351  0.79768772  0.87003483     0.79100
N452        N  0.48873894  0.83231083  0.91036694    -0.79200
C453        C  0.53513352  0.85049870  0.92950878     0.81500
N454        N  0.58155127  0.83223320  0.91056590    -0.79200
C455        C  0.58169717  0.79765751  0.87025580     0.81600
N456        N  0.53526212  0.78127993  0.84953246    -0.80900
C457        C  0.78266799  0.43307144  0.61068763     0.79100
N458        N  0.78610289  0.43305890  0.55703264    -0.79200
C459        C  0.78682246  0.47944387  0.52986009     0.81500
N460        N  0.78498411  0.52565164  0.55729460    -0.79200
C461        C  0.78142866  0.52527170  0.61095437     0.81600
N462        N  0.78006011  0.47907914  0.63688683    -0.80900
C463        C  0.90470746  0.52533066  0.82074624     0.79100
N464        N  0.88435091  0.47901008  0.80374139    -0.79200
C465        C  0.90515044  0.43244160  0.81946935     0.81500
N466        N  0.94547791  0.43220355  0.85407948    -0.79200
C467        C  0.96434952  0.47846141  0.87291437     0.81600
N468        N  0.94507705  0.52502840  0.85529771    -0.80900
O469        O  0.84455210  0.74395517  0.90995099    -0.87600
O470        O  0.89638604  0.67835460  0.62992861    -0.87800
O471        O  0.90602922  0.61768359  0.80202128    -0.89500
O472        O  0.94398404  0.78803021  0.76786438    -0.88200
O473        O  0.89805758  0.86189301  0.74347547    -0.87800
O474        O  0.82980568  0.56943943  0.79542549    -0.89200
O475        O  0.94484083  0.68604306  0.70585744    -0.87700
O476        O  0.91837857  0.71971486  0.86386253    -0.87300
Zr477      Zr  0.88668509  0.70959589  0.77563205     2.84300
O478        O  0.85849008  0.75751667  0.70248670    -1.09200
O479        O  0.81402820  0.68021925  0.82377098    -1.10000
C480        C  0.89426531  0.73223666  0.90639058     1.05500
C481        C  0.93981643  0.67586156  0.65670203     1.05400
C482        C  0.87906165  0.57435950  0.80514235     1.08400
C483        C  0.94042575  0.83781679  0.75655412     1.06200
H484        H  0.85414725  0.62609870  0.71028778     0.31700
O485        O  0.83400263  0.65598672  0.72234316    -1.30200
H486        H  0.86121006  0.80438092  0.82690081     0.31400
O487        O  0.83927705  0.78254014  0.80487659    -1.31900
O488        O  0.72654709  0.71132004  0.59243666    -0.87600
O489        O  0.67419821  0.77931791  0.87164126    -0.89100
O490        O  0.76903320  0.57017013  0.69175626    -0.87700
O491        O  0.83751915  0.84924180  0.64015553    -0.87800
O492        O  0.80186839  0.88763111  0.80976413    -0.87500
O493        O  0.73431470  0.60811810  0.86214355    -0.87300
O494        O  0.62643598  0.67039642  0.73337834    -0.87700
O495        O  0.66477867  0.84003674  0.70001718    -0.87100
O496        O  0.67240827  0.59651444  0.75758029    -0.88200
O497        O  0.74074657  0.88842306  0.70783007    -0.87300
O498        O  0.79357531  0.61637617  0.61812300    -0.87700
O499        O  0.74280875  0.68393295  0.91071216    -0.87500
O500        O  0.77798110  0.84176560  0.88382599    -0.87100
O501        O  0.83003951  0.77331690  0.59162644    -0.87500
O502        O  0.65267921  0.73552506  0.63841548    -0.87800
O503        O  0.62593188  0.77238978  0.79547239    -0.89200
Zr504      Zr  0.80468071  0.70437034  0.64989219     2.83100
Zr505      Zr  0.76637618  0.75340743  0.85237512     2.83500
Zr506      Zr  0.76070963  0.62758081  0.77010383     2.84100
Zr507      Zr  0.81011812  0.83000665  0.73185542     2.83400
Zr508      Zr  0.68437240  0.74814160  0.72635589     2.84200
O509        O  0.73694209  0.80176860  0.77981474    -1.09700
O510        O  0.73162717  0.67505551  0.69712193    -1.09200
C511        C  0.67678704  0.72252112  0.59602289     1.05400
C512        C  0.63079502  0.78206664  0.84471158     1.08100
C513        C  0.78084788  0.57385716  0.64209315     1.05600
C514        C  0.84040809  0.82241267  0.59671717     1.06000
C515        C  0.79071782  0.88417961  0.85954688     1.05600
C516        C  0.73215570  0.63489927  0.90568244     1.05100
C517        C  0.62998809  0.62066284  0.74466789     1.05500
C518        C  0.69163210  0.88347246  0.69745749     1.05000
H519        H  0.68271834  0.68810772  0.81961051     0.31700
O520        O  0.71266561  0.70020048  0.79957434    -1.30800
H521        H  0.74481825  0.79769395  0.64803354     0.31700
O522        O  0.75678503  0.77762077  0.67799273    -1.32200
C523        C  0.49096940  0.36933738  0.25421749     0.79100
N524        N  0.49062593  0.42304083  0.25153040    -0.79200
C525        C  0.53680678  0.45055760  0.25099313     0.81500
N526        N  0.58323756  0.42338845  0.25227976    -0.79200
C527        C  0.58323915  0.36965553  0.25509233     0.81600
N528        N  0.53717746  0.34339970  0.25627812    -0.80900
C529        C  0.58336593  0.15974774  0.13182226     0.79100
N530        N  0.53689091  0.17682618  0.15191623    -0.79200
C531        C  0.49037744  0.16124543  0.13072740     0.81500
N532        N  0.49041457  0.12670668  0.09033984    -0.79200
C533        C  0.53677818  0.10779092  0.07178389     0.81600
N534        N  0.58324208  0.12525728  0.09140440    -0.80900
O535        O  0.84527185  0.21469312  0.09124064    -0.87600
O536        O  0.89824662  0.28060553  0.37165947    -0.87800
O537        O  0.90787415  0.34139626  0.19994111    -0.89500
O538        O  0.94625579  0.17154093  0.23298587    -0.88200
O539        O  0.90032648  0.09773016  0.25760064    -0.87800
O540        O  0.83165488  0.38956193  0.20682467    -0.89200
O541        O  0.94669029  0.27272765  0.29570191    -0.87700
O542        O  0.91907803  0.23938100  0.13711266    -0.87300
Zr543      Zr  0.88845438  0.24935555  0.22587491     2.84300
O544        O  0.86036453  0.20132024  0.29909308    -1.09200
O545        O  0.81579902  0.27830795  0.17763259    -1.10000
C546        C  0.89483004  0.22679242  0.09465452     1.05500
C547        C  0.94168287  0.28311716  0.34482490     1.05400
C548        C  0.88089862  0.38474135  0.19710384     1.08400
C549        C  0.94263354  0.12181502  0.24431942     1.06200
H550        H  0.85584449  0.33263393  0.29143661     0.31700
O551        O  0.83577359  0.30272212  0.27933704    -1.30200
H552        H  0.86305477  0.15454583  0.17469545     0.31400
O553        O  0.84107456  0.17630425  0.19679049    -1.31900
O554        O  0.72801516  0.24754352  0.40910604    -0.87600
O555        O  0.67587276  0.17824387  0.13058788    -0.89100
O556        O  0.77007831  0.38842502  0.30943562    -0.87700
O557        O  0.83944682  0.10907289  0.36139758    -0.87800
O558        O  0.80480109  0.07081163  0.19197156    -0.87500
O559        O  0.73743368  0.35040040  0.13895163    -0.87300
O560        O  0.62856652  0.28903783  0.26699822    -0.87700
O561        O  0.66637453  0.11897039  0.30055661    -0.87100
O562        O  0.67453358  0.36280664  0.24252428    -0.88200
O563        O  0.74222380  0.07036073  0.29264154    -0.87300
O564        O  0.79465140  0.34244206  0.38320262    -0.87700
O565        O  0.74449322  0.27425356  0.09068351    -0.87500
O566        O  0.78042605  0.11672186  0.11810699    -0.87100
O567        O  0.83183616  0.18498956  0.40994068    -0.87500
O568        O  0.65429551  0.22314787  0.36300037    -0.87800
O569        O  0.62747899  0.18555011  0.20663114    -0.89200
Zr570      Zr  0.80647725  0.25429278  0.35185027     2.83100
Zr571      Zr  0.76794725  0.20502987  0.14938249     2.83500
Zr572      Zr  0.76266117  0.33102090  0.23125755     2.84100
Zr573      Zr  0.81212051  0.12872914  0.26978487     2.83400
Zr574      Zr  0.68615884  0.21087400  0.27513403     2.84200
O575        O  0.73882170  0.15696750  0.22206576    -1.09700
O576        O  0.73355715  0.28376061  0.30441790    -1.09200
C577        C  0.67822919  0.23635553  0.40539378     1.05400
C578        C  0.63243604  0.17543740  0.15748353     1.08100
C579        C  0.78166638  0.38484374  0.35911307     1.05600
C580        C  0.84223868  0.13586775  0.40485793     1.06000
C581        C  0.79359678  0.07434324  0.14219963     1.05600
C582        C  0.73473407  0.32349442  0.09553449     1.05100
C583        C  0.63206037  0.33872938  0.25531612     1.05500
C584        C  0.69304000  0.07543959  0.30273316     1.05000
H585        H  0.68442016  0.27058750  0.18165415     0.31700
O586        O  0.71431708  0.25858131  0.20180563    -1.30800
H587        H  0.74651702  0.16099445  0.35345610     0.31700
O588        O  0.75856062  0.18112262  0.32356368    -1.32200
C589        C  0.48966258  0.36871711  0.74419899     0.79100
N590        N  0.48938790  0.42237118  0.74737182    -0.79200
C591        C  0.53561964  0.44973427  0.74857170     0.81500
N592        N  0.58198951  0.42245308  0.74763479    -0.79200
C593        C  0.58186302  0.36873627  0.74455446     0.81600
N594        N  0.53578025  0.34265151  0.74254757    -0.80900
C595        C  0.48929598  0.15889712  0.86938489     0.79100
N596        N  0.48970427  0.12461445  0.90998869    -0.79200
C597        C  0.53632987  0.10691061  0.92906809     0.81500
N598        N  0.58254749  0.12537983  0.90975303    -0.79200
C599        C  0.58224031  0.15969424  0.86918823     0.81600
N600        N  0.53560035  0.17553995  0.84861559    -0.80900
C601        C  0.64681379  0.23647039  0.54604789     0.79100
N602        N  0.59315158  0.23370098  0.54620776    -0.79200
C603        C  0.56589119  0.23311143  0.49991202     0.81500
N604        N  0.59326033  0.23424830  0.45360957    -0.79200
C605        C  0.64697600  0.23713152  0.45389115     0.81600
N606        N  0.67296604  0.23853181  0.50001904    -0.80900
C607        C  0.85808911  0.11016870  0.45387590     0.79100
N608        N  0.84103537  0.13040201  0.50023966    -0.79200
C609        C  0.85653300  0.10940327  0.54679772     0.81500
N610        N  0.89097010  0.06892219  0.54699397    -0.79200
C611        C  0.90985687  0.05009137  0.50072378     0.81600
N612        N  0.89245778  0.06959839  0.45414208    -0.80900
O613        O  0.84488372  0.21306918  0.90858313    -0.87600
O614        O  0.89729563  0.28002301  0.62937630    -0.87800
O615        O  0.94430567  0.17030609  0.76744033    -0.89500
O616        O  0.90651187  0.34015781  0.80052956    -0.88200
O617        O  0.83059558  0.38860554  0.79264617    -0.87800
O618        O  0.89838262  0.09633289  0.74341108    -0.89200
O619        O  0.94542783  0.27360530  0.70562526    -0.87700
O620        O  0.91863827  0.23735622  0.86244518    -0.87300
Zr621      Zr  0.88690809  0.24832369  0.77444452     2.84300
O622        O  0.83442714  0.30198199  0.72120992    -1.09200
O623        O  0.83970900  0.17517339  0.80371691    -1.10000
C624        C  0.89455936  0.22487583  0.90497874     1.05500
C625        C  0.94058809  0.28330293  0.65636868     1.05400
C626        C  0.94072746  0.12055946  0.75629233     1.08400
C627        C  0.87970580  0.38359944  0.80296983     1.06200
H628        H  0.88889184  0.18813352  0.68135698     0.31700
O629        O  0.85889253  0.20014605  0.70135776    -1.30200
H630        H  0.82639975  0.29775609  0.85259970     0.31400
O631        O  0.81439739  0.27758068  0.82271697    -1.31900
O632        O  0.72753127  0.24633904  0.59107578    -0.87600
O633        O  0.67465971  0.17814434  0.87029477    -0.89100
O634        O  0.83736302  0.10792433  0.63915087    -0.87700
O635        O  0.77067852  0.38778977  0.69115722    -0.87800
O636        O  0.73504397  0.34941836  0.86114932    -0.87500
O637        O  0.80327104  0.07008727  0.80894532    -0.87300
O638        O  0.66530702  0.11786227  0.69835057    -0.87700
O639        O  0.62697985  0.28788543  0.73352218    -0.87100
O640        O  0.74139819  0.06949684  0.70546986    -0.88200
O641        O  0.67297918  0.36173884  0.75780084    -0.87300
O642        O  0.82906283  0.18374598  0.59061343    -0.87700
O643        O  0.77942455  0.11629587  0.88279723    -0.87500
O644        O  0.74134881  0.27316622  0.90937322    -0.87100
O645        O  0.79529241  0.34186479  0.61735277    -0.87500
O646        O  0.65354505  0.22199822  0.63686823    -0.87800
O647        O  0.62602712  0.18662706  0.79453442    -0.89200
Zr648      Zr  0.80539428  0.25350770  0.64873781     2.83100
Zr649      Zr  0.76667582  0.20428340  0.85104554     2.83500
Zr650      Zr  0.81042537  0.12770973  0.73078622     2.84100
Zr651      Zr  0.76118668  0.33016975  0.76904489     2.83400
Zr652      Zr  0.68466769  0.20980459  0.72506919     2.84200
O653        O  0.71300925  0.25752485  0.79831314    -1.09700
O654        O  0.75732006  0.18034318  0.67688449    -1.09200
C655        C  0.67776427  0.23517363  0.59459128     1.05400
C656        C  0.63110804  0.17605338  0.84359402     1.08100
C657        C  0.83974830  0.13470699  0.59567662     1.05600
C658        C  0.78264586  0.38432442  0.64153921     1.06000
C659        C  0.73189886  0.32246817  0.90450555     1.05600
C660        C  0.79228183  0.07379887  0.85877073     1.05100
C661        C  0.69221610  0.07445229  0.69545291     1.05500
C662        C  0.63052316  0.33763210  0.74501872     1.05000
H663        H  0.71703107  0.12607684  0.79055373     0.31700
O664        O  0.73712699  0.15600795  0.77853988    -1.30800
H665        H  0.71046960  0.30481644  0.67410759     0.31700
O666        O  0.73227872  0.28273066  0.69602305    -1.32200
O667        O  0.22696717  0.21358036  0.09139748    -0.87600
O668        O  0.17583182  0.28259452  0.37073789    -0.87800
O669        O  0.12825143  0.17094148  0.23226025    -0.89500
O670        O  0.16561124  0.34158154  0.20035399    -0.88200
O671        O  0.24179142  0.38979861  0.20726311    -0.87800
O672        O  0.17403444  0.09728174  0.25746576    -0.89200
O673        O  0.12726741  0.27473880  0.29488231    -0.87700
O674        O  0.15339973  0.23853133  0.13750368    -0.87300
Zr675      Zr  0.18527870  0.24944581  0.22566339     2.84300
O676        O  0.23811549  0.30298653  0.27875758    -1.09200
O677        O  0.23255316  0.17639052  0.19641873    -1.10000
C678        C  0.17733322  0.22558432  0.09498693     1.05500
C679        C  0.13240019  0.28536871  0.34392144     1.05400
C680        C  0.13178935  0.12125375  0.24382744     1.08400
C681        C  0.19252409  0.38496296  0.19758853     1.06200
H682        H  0.18353953  0.18941346  0.31903256     0.31700
O683        O  0.21345013  0.20144149  0.29890899    -1.30200
H684        H  0.24556555  0.29895724  0.14750609     0.31400
O685        O  0.25772258  0.27877774  0.17731996    -1.31900
O686        O  0.34511740  0.24638748  0.40909206    -0.87600
O687        O  0.39782114  0.18026188  0.12915644    -0.89100
O688        O  0.23667485  0.10900717  0.36129772    -0.87700
O689        O  0.30223950  0.38920485  0.30870065    -0.87800
O690        O  0.33742192  0.35049855  0.13889446    -0.87500
O691        O  0.26819256  0.07161329  0.19127393    -0.87300
O692        O  0.40693026  0.11921378  0.30210802    -0.87700
O693        O  0.44582685  0.28852609  0.26541329    -0.87100
O694        O  0.33112084  0.07062591  0.29393377    -0.88200
O695        O  0.39972121  0.36248750  0.24169885    -0.87300
O696        O  0.24359697  0.18510303  0.40964102    -0.87700
O697        O  0.29255547  0.11739116  0.11733738    -0.87500
O698        O  0.32930344  0.27463650  0.09031651    -0.87100
O699        O  0.27857580  0.34299868  0.38262953    -0.87500
O700        O  0.41915974  0.22300699  0.36291188    -0.87800
O701        O  0.44608297  0.18707678  0.20533432    -0.89200
Zr702      Zr  0.26732606  0.25477535  0.35134032     2.83100
Zr703      Zr  0.30539965  0.20547033  0.14878126     2.83500
Zr704      Zr  0.26196855  0.12905970  0.26936631     2.84100
Zr705      Zr  0.31123187  0.33133087  0.23088233     2.83400
Zr706      Zr  0.38772872  0.21093108  0.27468653     2.84200
O707        O  0.35922297  0.25862449  0.20145641    -1.09700
O708        O  0.31521941  0.18164105  0.32302243    -1.09200
C709        C  0.39493368  0.23542556  0.40544361     1.05400
C710        C  0.44125555  0.17745316  0.15607531     1.08100
C711        C  0.23394185  0.13581978  0.40471477     1.05600
C712        C  0.29084386  0.38555378  0.35844806     1.06000
C713        C  0.33960437  0.32373097  0.09538257     1.05600
C714        C  0.27927062  0.07511064  0.14149909     1.05100
C715        C  0.38015232  0.07571617  0.30460350     1.05500
C716        C  0.44228027  0.33826296  0.25398561     1.05000
H717        H  0.35516578  0.12724432  0.20917109     0.31700
O718        O  0.33512028  0.15719387  0.22125061    -1.30800
H719        H  0.36234178  0.30595246  0.32574708     0.31700
O720        O  0.34036819  0.28396071  0.30388630    -1.32200
C721        C  0.53687704  0.07981734  0.02394328    -0.14400
C722        C  0.53671470  0.07948346  0.97721531    -0.16000
C723        C  0.93734248  0.95527157  0.50124583    -0.14400
C724        C  0.93748687  0.00201468  0.50091795    -0.16000
C725        C  0.53587714  0.87929127  0.02387524    -0.14400
C726        C  0.53521478  0.87873478  0.97716861    -0.16000
C727        C  0.01212798  0.47830740  0.90102304    -0.16800
C728        C  0.05886562  0.47848401  0.90142911    -0.16000
C729        C  0.13510459  0.95697537  0.50078168    -0.14400
C730        C  0.13571232  0.00368766  0.49995462    -0.16000
C731        C  0.05997079  0.48038435  0.10036524    -0.14400
C732        C  0.01324756  0.48071134  0.10052804    -0.16000
C733        C  0.03590049  0.57879384  0.47731411    -0.14400
C734        C  0.03523954  0.57855027  0.52404491    -0.16000
C735        C  0.03619783  0.38063229  0.52396548    -0.14400
C736        C  0.03637105  0.38122096  0.47722825    -0.16000
C737        C  0.51207840  0.97868379  0.60018185    -0.14400
C738        C  0.55881711  0.97845164  0.60005094    -0.16000
C739        C  0.56015866  0.98086492  0.40032325    -0.14400
C740        C  0.51343271  0.98057115  0.40092705    -0.16000
C741        C  0.63530768  0.50221877  0.00120012    -0.14400
C742        C  0.63613608  0.45548454  0.00088846    -0.16000
C743        C  0.43456705  0.50359594  0.00092706    -0.14400
C744        C  0.43526575  0.45690035  0.00011165    -0.16000
loop_ 
_geom_bond_atom_site_label_1 
_geom_bond_atom_site_label_2 
_geom_bond_distance 
_geom_bond_site_symmetry_2 
_ccdc_geom_bond_type 
C1            N2   1.348   1_556  A
C1            N6   1.366       .  A
C1          C312   1.465       .  S
N2            C3   1.347       .  A
C3            N4   1.367       .  A
C3          C168   1.468       .  S
N4            C5   1.367       .  A
C5            N6   1.366   1_554  A
C5           C53   1.496       .  S
C7            N8   1.357       .  A
C7           N12   1.351       .  A
C7          C204   1.461       .  S
N8            C9   1.358   1_554  A
C9           N10   1.350       .  A
C9          C347   1.460       .  S
N10          C11   1.356   1_556  A
C11          N12   1.357       .  A
C11         C743   1.408       .  S
C13          N14   1.366       .  A
C13          N18   1.348   1_554  A
C13         C546   1.466       .  S
N14          C15   1.366   1_654  A
C15          N16   1.367   1_455  A
C15          C65   1.497       .  S
N16          C17   1.368       .  A
C17          N18   1.347       .  A
C17         C624   1.468       .  S
C19          N20   1.351       .  A
C19          N24   1.358       .  A
C19         C659   1.462       .  S
N20          C21   1.357   1_556  A
C21          N22   1.357       .  A
C21         C742   1.409       .  S
N22          C23   1.351       .  A
C23          N24   1.358   1_554  A
C23         C582   1.463       .  S
C25          N26   1.348       .  A
C25          N30   1.366       .  A
C25         C390   1.467       .  S
N26          C27   1.348   1_565  A
C27          N28   1.367       .  A
C27         C581   1.468       .  S
N28          C29   1.367   1_545  A
C29          N30   1.367       .  A
C29          C77   1.496   1_554  S
C31          N32   1.357   1_545  A
C31          N36   1.351       .  A
C31         C584   1.461       .  S
N32          C33   1.357       .  A
C33          N34   1.350       .  A
C33         C425   1.460       .  S
N34          C35   1.356       .  A
C35          N36   1.357   1_565  A
C35         C739   1.409       .  S
C37          N38   1.348   1_545  A
C37          N42   1.366       .  A
C37         C234   1.468       .  S
N38          C39   1.348       .  A
C39          N40   1.367       .  A
C39         C348   1.467       .  S
N40          C41   1.367       .  A
C41          N42   1.367   1_565  A
C41          C87   1.495   1_556  S
C43          N44   1.357       .  A
C43          N48   1.351       .  A
C43         C349   1.463       .  S
N44          C45   1.357   1_565  A
C45          N46   1.351       .  A
C45         C270   1.463       .  S
N46          C47   1.357   1_545  A
C47          N48   1.357       .  A
C47         C737   1.409       .  S
C49          N50   1.347       .  A
C49          N54   1.366       .  A
C49         C392   1.465       .  S
N50          C51   1.347   1_554  A
C51          N52   1.367       .  A
C51         C480   1.468       .  S
N52          C53   1.368   1_656  A
C53          N54   1.366   1_455  A
C55          N56   1.352       .  A
C55          N60   1.357       .  A
C55         C391   1.464       .  S
N56          C57   1.358       .  A
C57          N58   1.357   1_554  A
C57         C741   1.409       .  S
N58          C59   1.351       .  A
C59          N60   1.357   1_556  A
C59         C516   1.463       .  S
C61          N62   1.347   1_556  A
C61          N66   1.367       .  A
C61         C237   1.466       .  S
N62          C63   1.347       .  A
C63          N64   1.367       .  A
C63         C678   1.469       .  S
N64          C65   1.368   1_554  A
C65          N66   1.366       .  A
C67          N68   1.352       .  A
C67          N72   1.357       .  A
C67         C235   1.463       .  S
N68          C69   1.358       .  A
C69          N70   1.356   1_556  A
C69         C744   1.408   1_556  S
N70          C71   1.350       .  A
C71          N72   1.357   1_554  A
C71         C713   1.460       .  S
C73          N74   1.348       .  A
C73          N78   1.366       .  A
C73         C515   1.467       .  S
N74          C75   1.348   1_565  A
C75          N76   1.367       .  A
C75         C660   1.468       .  S
N76          C77   1.367   1_545  A
C77          N78   1.367       .  A
C79          N80   1.357   1_545  A
C79          N84   1.351       .  A
C79         C661   1.463       .  S
N80          C81   1.357       .  A
C81          N82   1.351       .  A
C81         C518   1.463       .  S
N82          C83   1.357       .  A
C83          N84   1.357   1_565  A
C83         C738   1.409       .  S
C85          N86   1.366       .  A
C85          N90   1.347   1_545  A
C85         C714   1.466       .  S
N86          C87   1.367   1_545  A
C87          N88   1.367       .  A
N88          C89   1.367       .  A
C89          N90   1.347       .  A
C89         C203   1.467       .  S
C91          N92   1.351       .  A
C91          N96   1.357       .  A
C91         C206   1.463       .  S
N92          C93   1.358       .  A
C93          N94   1.357   1_565  A
C93         C740   1.409       .  S
N94          C95   1.351       .  A
C95          N96   1.357   1_545  A
C95         C715   1.463       .  S
C97          N98   1.348   1_655  A
C97         N102   1.365       .  A
C97         C626   1.464       .  S
N98          C99   1.347       .  A
C99         N100   1.368       .  A
C99         C269   1.469       .  S
N100        C101   1.368       .  A
C101        N102   1.365   1_455  A
C101        C111   1.495   1_545  S
C103        N104   1.357   1_655  A
C103        N108   1.351       .  A
C103        C625   1.462       .  S
N104        C105   1.357       .  A
C105        N106   1.351       .  A
C105        C272   1.462       .  S
N106        C107   1.357       .  A
C107        N108   1.357   1_455  A
C107        C735   1.409       .  S
C109        N110   1.366       .  A
C109        N114   1.347       .  A
C109        C314   1.465       .  S
N110        C111   1.366       .  A
C111        N112   1.368   1_455  A
N112        C113   1.367       .  A
C113        N114   1.347   1_655  A
C113        C483   1.467       .  S
C115        N116   1.351       .  A
C115        N120   1.356   1_655  A
C115        C481   1.461       .  S
N116        C117   1.358   1_655  A
C117        N118   1.357       .  A
C117        C734   1.409       .  S
N118        C119   1.350       .  A
C119        N120   1.356       .  A
C119        C313   1.460       .  S
C121        N122   1.365       .  A
C121        N126   1.347       .  A
C121        C171   1.464       .  S
N122        C123   1.365       .  A
C123        N124   1.367   1_455  A
C123        C135   1.494   1_565  S
N124        C125   1.367       .  A
C125        N126   1.347   1_655  A
C125        C426   1.468       .  S
C127        N128   1.352       .  A
C127        N132   1.357       .  A
C127        C169   1.463       .  S
N128        C129   1.358       .  A
C129        N130   1.357   1_455  A
C129        C733   1.409       .  S
N130        C131   1.350       .  A
C131        N132   1.357   1_655  A
C131        C427   1.461       .  S
C133        N134   1.366       .  A
C133        N138   1.346   1_655  A
C133        C549   1.463       .  S
N134        C135   1.365   1_655  A
C135        N136   1.367       .  A
N136        C137   1.366       .  A
C137        N138   1.346       .  A
C137        C680   1.465       .  S
C139        N140   1.351       .  A
C139        N144   1.356   1_655  A
C139        C547   1.462       .  S
N140        C141   1.358   1_655  A
C141        N142   1.358       .  A
C141        C736   1.409       .  S
N142        C143   1.351       .  A
C143        N144   1.357       .  A
C143        C679   1.462       .  S
C145        N146   1.348       .  A
C145        N150   1.367       .  A
C145        C201   1.466       .  S
N146        C147   1.347       .  A
C147        N148   1.367       .  A
C147        C712   1.467       .  S
N148        C149   1.366       .  A
C149        N150   1.367       .  A
C149        C291   1.496       .  S
C151        N152   1.357       .  A
C151        N156   1.351       .  A
C151        C681   1.463       .  S
N152        C153   1.358       .  A
C153        N154   1.350       .  A
C153        C170   1.462       .  S
N154        C155   1.357       .  A
C155        N156   1.357       .  A
C155        C731   1.408       .  S
O157       Zr193   2.479       .  S
O157        C168   1.301       .  A
O158       Zr192   2.478       .  S
O158        C169   1.299       .  A
O159       Zr165   2.483       .  S
O159        C170   1.300       .  A
O160       Zr165   2.471       .  S
O160        C171   1.299       .  A
O161       Zr195   2.397       .  S
O161        C171   1.283       .  A
O162       Zr194   2.379       .  S
O162        C170   1.281       .  A
O163       Zr165   2.387       .  S
O163        C169   1.283       .  A
O164       Zr165   2.397       .  S
O164        C168   1.283       .  A
Zr165       O166   2.336       .  S
Zr165       O167   2.336       .  S
Zr165       O175   2.335       .  S
Zr165       O173   2.340       .  S
O166       Zr192   2.341       .  S
O166       Zr195   2.339       .  S
O167       Zr193   2.335       .  S
O167       Zr194   2.340       .  S
H172        O173   0.966       .  S
O173       Zr192   2.336       .  S
O173       Zr194   2.338       .  S
H174        O175   0.966       .  S
O175       Zr193   2.333       .  S
O175       Zr195   2.334       .  S
O176       Zr192   2.467       .  S
O176        C199   1.299       .  A
O177       Zr193   2.483       .  S
O177        C200   1.300       .  A
O178       Zr194   2.471       .  S
O178        C201   1.300       .  A
O179       Zr195   2.481       .  S
O179        C202   1.300       .  A
O180       Zr195   2.477       .  S
O180        C203   1.301       .  A
O181       Zr194   2.476       .  S
O181        C204   1.299       .  A
O182       Zr196   2.476       .  S
O182        C205   1.300       .  A
O183       Zr196   2.481       .  S
O183        C206   1.300       .  A
O184       Zr194   2.400       .  S
O184        C205   1.283       .  A
O185       Zr195   2.386       .  S
O185        C206   1.282       .  A
O186       Zr192   2.398       .  S
O186        C201   1.283       .  A
O187       Zr193   2.385       .  S
O187        C204   1.282       .  A
O188       Zr193   2.398       .  S
O188        C203   1.283       .  A
O189       Zr192   2.385       .  S
O189        C202   1.282       .  A
O190       Zr196   2.400       .  S
O190        C199   1.283       .  A
O191       Zr196   2.382       .  S
O191        C200   1.282       .  A
Zr192       O198   2.334       .  S
Zr192       O210   2.339       .  S
Zr193       O197   2.338       .  S
Zr193       O208   2.345       .  S
Zr194       O198   2.331       .  S
Zr194       O208   2.337       .  S
Zr195       O197   2.335       .  S
Zr195       O210   2.345       .  S
Zr196       O197   2.344       .  S
Zr196       O198   2.332       .  S
Zr196       O210   2.338       .  S
Zr196       O208   2.339       .  S
C199        C277   1.465       .  S
C200        C375   1.462       .  S
C202        C287   1.462       .  S
C205        C369   1.469       .  S
H207        O208   0.966       .  S
H209        O210   0.966       .  S
C211        N212   1.366       .  A
C211        N216   1.348       .  A
C211        C709   1.467       .  S
N212        C213   1.366       .  A
C213        N214   1.367       .  A
C213        C603   1.496       .  S
N214        C215   1.367       .  A
C215        N216   1.348       .  A
C215        C271   1.469       .  S
C217        N218   1.352       .  A
C217        N222   1.357       .  A
C217        C711   1.462       .  S
N218        C219   1.357       .  A
C219        N220   1.356       .  A
C219        C730   1.409       .  S
N220        C221   1.350       .  A
C221        N222   1.357       .  A
C221        C266   1.460       .  S
O223       Zr259   2.473       .  S
O223        C234   1.300       .  A
O224       Zr258   2.477       .  S
O224        C235   1.299       .  A
O225       Zr231   2.483       .  S
O225        C236   1.300       .  A
O226       Zr231   2.475       .  S
O226        C237   1.300       .  A
O227       Zr261   2.395       .  S
O227        C237   1.283       .  A
O228       Zr260   2.383       .  S
O228        C236   1.282       .  A
O229       Zr231   2.388       .  S
O229        C235   1.283       .  A
O230       Zr231   2.403       .  S
O230        C234   1.284       .  A
Zr231       O232   2.335       .  S
Zr231       O233   2.338       .  S
Zr231       O241   2.335       .  S
Zr231       O239   2.343       .  S
O232       Zr258   2.340       .  S
O232       Zr261   2.337       .  S
O233       Zr259   2.337       .  S
O233       Zr260   2.343       .  S
C236        C595   1.463       .  S
H238        O239   0.966       .  S
O239       Zr258   2.339       .  S
O239       Zr260   2.339       .  S
H240        O241   0.966       .  S
O241       Zr259   2.334       .  S
O241       Zr261   2.333       .  S
O242       Zr258   2.474       .  S
O242        C265   1.300       .  A
O243       Zr259   2.479       .  S
O243        C266   1.300       .  A
O244       Zr260   2.472       .  S
O244        C267   1.300       .  A
O245       Zr261   2.481       .  S
O245        C268   1.300       .  A
O246       Zr261   2.478       .  S
O246        C269   1.301       .  A
O247       Zr260   2.481       .  S
O247        C270   1.300       .  A
O248       Zr262   2.474       .  S
O248        C271   1.300       .  A
O249       Zr262   2.480       .  S
O249        C272   1.300       .  A
O250       Zr260   2.403       .  S
O250        C271   1.284       .  A
O251       Zr261   2.383       .  S
O251        C272   1.282       .  A
O252       Zr258   2.396       .  S
O252        C267   1.283       .  A
O253       Zr259   2.384       .  S
O253        C270   1.282       .  A
O254       Zr259   2.400       .  S
O254        C269   1.283       .  A
O255       Zr258   2.385       .  S
O255        C268   1.282       .  A
O256       Zr262   2.396       .  S
O256        C265   1.282       .  A
O257       Zr262   2.380       .  S
O257        C266   1.281       .  A
Zr258       O264   2.333       .  S
Zr258       O276   2.337       .  S
Zr259       O263   2.337       .  S
Zr259       O274   2.344       .  S
Zr260       O264   2.334       .  S
Zr260       O274   2.336       .  S
Zr261       O263   2.335       .  S
Zr261       O276   2.342       .  S
Zr262       O263   2.343       .  S
Zr262       O264   2.332       .  S
Zr262       O276   2.337       .  S
Zr262       O274   2.338       .  S
C265        C293   1.466       .  S
C267        C589   1.465       .  S
C268        C295   1.463       .  S
H273        O274   0.966       .  S
H275        O276   0.966       .  S
C277        N278   1.366       .  A
C277        N282   1.347       .  A
N278        C279   1.366       .  A
C279        N280   1.367       .  A
C279        C435   1.496       .  S
N280        C281   1.367       .  A
C281        N282   1.347       .  A
C281        C343   1.467       .  S
C283        N284   1.351       .  A
C283        N288   1.357       .  A
C283        C345   1.462       .  S
N284        C285   1.358       .  A
C285        N286   1.357       .  A
C285        C729   1.408       .  S
N286        C287   1.350       .  A
C287        N288   1.357       .  A
C289        N290   1.367       .  A
C289        N294   1.347       .  A
C289        C346   1.467       .  S
N290        C291   1.367       .  A
C291        N292   1.367       .  A
N292        C293   1.367       .  A
C293        N294   1.347       .  A
C295        N296   1.357       .  A
C295        N300   1.351       .  A
N296        C297   1.357       .  A
C297        N298   1.351       .  A
C297        C315   1.462       .  S
N298        C299   1.357       .  A
C299        N300   1.357       .  A
C299        C728   1.409       .  S
O301       Zr337   2.468       .  S
O301        C312   1.299       .  A
O302       Zr336   2.477       .  S
O302        C313   1.299       .  A
O303       Zr309   2.471       .  S
O303        C314   1.300       .  A
O304       Zr309   2.480       .  S
O304        C315   1.300       .  A
O305       Zr339   2.382       .  S
O305        C315   1.282       .  A
O306       Zr338   2.398       .  S
O306        C314   1.283       .  A
O307       Zr309   2.385       .  S
O307        C313   1.282       .  A
O308       Zr309   2.399       .  S
O308        C312   1.283       .  A
Zr309       O310   2.342       .  S
Zr309       O311   2.333       .  S
Zr309       O319   2.335       .  S
Zr309       O317   2.339       .  S
O310       Zr336   2.339       .  S
O310       Zr339   2.336       .  S
O311       Zr337   2.332       .  S
O311       Zr338   2.331       .  S
H316        O317   0.966       .  S
O317       Zr336   2.344       .  S
O317       Zr338   2.337       .  S
H318        O319   0.966       .  S
O319       Zr337   2.338       .  S
O319       Zr339   2.342       .  S
O320       Zr336   2.476       .  S
O320        C343   1.301       .  A
O321       Zr337   2.479       .  S
O321        C344   1.300       .  A
O322       Zr338   2.475       .  S
O322        C345   1.299       .  A
O323       Zr339   2.478       .  S
O323        C346   1.301       .  A
O324       Zr339   2.480       .  S
O324        C347   1.300       .  A
O325       Zr338   2.470       .  S
O325        C348   1.299       .  A
O326       Zr340   2.481       .  S
O326        C349   1.300       .  A
O327       Zr340   2.477       .  S
O327        C350   1.301       .  A
O328       Zr338   2.385       .  S
O328        C349   1.282       .  A
O329       Zr339   2.402       .  S
O329        C350   1.284       .  A
O330       Zr336   2.388       .  S
O330        C345   1.283       .  A
O331       Zr337   2.402       .  S
O331        C348   1.283       .  A
O332       Zr337   2.382       .  S
O332        C347   1.282       .  A
O333       Zr336   2.397       .  S
O333        C346   1.283       .  A
O334       Zr340   2.397       .  S
O334        C343   1.283       .  A
O335       Zr340   2.385       .  S
O335        C344   1.282       .  A
Zr336       O342   2.335       .  S
Zr336       O354   2.334       .  S
Zr337       O341   2.343       .  S
Zr337       O352   2.336       .  S
Zr338       O342   2.343       .  S
Zr338       O352   2.338       .  S
Zr339       O341   2.339       .  S
Zr339       O354   2.332       .  S
Zr340       O341   2.335       .  S
Zr340       O342   2.339       .  S
Zr340       O354   2.333       .  S
Zr340       O352   2.345       .  S
C344        C451   1.463       .  S
C350        C449   1.470       .  S
H351        O352   0.966       .  S
H353        O354   0.965       .  S
C355        N356   1.366       .  A
C355        N360   1.347       .  A
C355        C579   1.466       .  S
N356        C357   1.366       .  A
C357        N358   1.367       .  A
C357        C459   1.496       .  S
N358        C359   1.367       .  A
C359        N360   1.347       .  A
C359        C421   1.467       .  S
C361        N362   1.357       .  A
C361        N366   1.351       .  A
C361        C423   1.462       .  S
N362        C363   1.357       .  A
C363        N364   1.350       .  A
C363        C548   1.461       .  S
N364        C365   1.357       .  A
C365        N366   1.357       .  A
C365        C732   1.408   1_655  S
C367        N368   1.347       .  A
C367        N372   1.367       .  A
C367        C424   1.466       .  S
N368        C369   1.347       .  A
C369        N370   1.368       .  A
N370        C371   1.368       .  A
C371        N372   1.366       .  A
C371        C525   1.498       .  S
C373        N374   1.357       .  A
C373        N378   1.351       .  A
C373        C393   1.462       .  S
N374        C375   1.357       .  A
C375        N376   1.350       .  A
N376        C377   1.356       .  A
C377        N378   1.357       .  A
C377        C725   1.408       .  S
O379       Zr415   2.472       .  S
O379        C390   1.300       .  A
O380       Zr414   2.481       .  S
O380        C391   1.300       .  A
O381       Zr387   2.471       .  S
O381        C392   1.300       .  A
O382       Zr387   2.480       .  S
O382        C393   1.300       .  A
O383       Zr417   2.383       .  S
O383        C393   1.282       .  A
O384       Zr416   2.396       .  S
O384        C392   1.283       .  A
O385       Zr387   2.389       .  S
O385        C391   1.283       .  A
O386       Zr387   2.401       .  S
O386        C390   1.284       .  A
Zr387       O388   2.341       .  S
Zr387       O389   2.335       .  S
Zr387       O397   2.338       .  S
Zr387       O395   2.337       .  S
O388       Zr414   2.337       .  S
O388       Zr417   2.336       .  S
O389       Zr415   2.333       .  S
O389       Zr416   2.332       .  S
H394        O395   0.966       .  S
O395       Zr414   2.342       .  S
O395       Zr416   2.339       .  S
H396        O397   0.966       .  S
O397       Zr415   2.339       .  S
O397       Zr417   2.344       .  S
O398       Zr414   2.474       .  S
O398        C421   1.300       .  A
O399       Zr415   2.482       .  S
O399        C422   1.300       .  A
O400       Zr416   2.476       .  S
O400        C423   1.299       .  A
O401       Zr417   2.474       .  S
O401        C424   1.300       .  A
O402       Zr417   2.479       .  S
O402        C425   1.299       .  A
O403       Zr416   2.475       .  S
O403        C426   1.300       .  A
O404       Zr418   2.481       .  S
O404        C427   1.300       .  A
O405       Zr418   2.477       .  S
O405        C428   1.301       .  A
O406       Zr416   2.382       .  S
O406        C427   1.282       .  A
O407       Zr417   2.403       .  S
O407        C428   1.284       .  A
O408       Zr414   2.386       .  S
O408        C423   1.282       .  A
O409       Zr415   2.398       .  S
O409        C426   1.283       .  A
O410       Zr415   2.382       .  S
O410        C425   1.282       .  A
O411       Zr414   2.397       .  S
O411        C424   1.283       .  A
O412       Zr418   2.397       .  S
O412        C421   1.283       .  A
O413       Zr418   2.381       .  S
O413        C422   1.282       .  A
Zr414       O420   2.335       .  S
Zr414       O432   2.334       .  S
Zr415       O419   2.343       .  S
Zr415       O430   2.335       .  S
Zr416       O420   2.342       .  S
Zr416       O430   2.336       .  S
Zr417       O419   2.337       .  S
Zr417       O432   2.333       .  S
Zr418       O419   2.336       .  S
Zr418       O420   2.337       .  S
Zr418       O432   2.332       .  S
Zr418       O430   2.344       .  S
C422        C443   1.462       .  S
C428        C437   1.470       .  S
H429        O430   0.966       .  S
H431        O432   0.966       .  S
C433        N434   1.366       .  A
C433        N438   1.348       .  A
C433        C511   1.466       .  S
N434        C435   1.366       .  A
C435        N436   1.368       .  A
N436        C437   1.367       .  A
C437        N438   1.348       .  A
C439        N440   1.351       .  A
C439        N444   1.357       .  A
C439        C514   1.463       .  S
N440        C441   1.357       .  A
C441        N442   1.357       .  A
C441        C723   1.409       .  S
N442        C443   1.350       .  A
C443        N444   1.357       .  A
C445        N446   1.366       .  A
C445        N450   1.348       .  A
C445        C517   1.467       .  S
N446        C447   1.366       .  A
C447        N448   1.368       .  A
C447        C591   1.497       .  S
N448        C449   1.367       .  A
C449        N450   1.348       .  A
C451        N452   1.351       .  A
C451        N456   1.358       .  A
N452        C453   1.357       .  A
C453        N454   1.356       .  A
C453        C726   1.408       .  S
N454        C455   1.350       .  A
C455        N456   1.358       .  A
C455        C512   1.461       .  S
C457        N458   1.367       .  A
C457        N462   1.347       .  A
C457        C658   1.466       .  S
N458        C459   1.367       .  A
C459        N460   1.367       .  A
N460        C461   1.367       .  A
C461        N462   1.347       .  A
C461        C513   1.467       .  S
C463        N464   1.357       .  A
C463        N468   1.351       .  A
C463        C482   1.461       .  S
N464        C465   1.357       .  A
C465        N466   1.351       .  A
C465        C627   1.461       .  S
N466        C467   1.357       .  A
C467        N468   1.357       .  A
C467        C727   1.409   1_655  S
O469       Zr505   2.480       .  S
O469        C480   1.301       .  A
O470       Zr504   2.475       .  S
O470        C481   1.298       .  A
O471       Zr477   2.480       .  S
O471        C482   1.300       .  A
O472       Zr477   2.477       .  S
O472        C483   1.301       .  A
O473       Zr507   2.396       .  S
O473        C483   1.283       .  A
O474       Zr506   2.384       .  S
O474        C482   1.282       .  A
O475       Zr477   2.385       .  S
O475        C481   1.282       .  A
O476       Zr477   2.397       .  S
O476        C480   1.283       .  A
Zr477       O478   2.336       .  S
Zr477       O479   2.338       .  S
Zr477       O487   2.333       .  S
Zr477       O485   2.342       .  S
O478       Zr504   2.342       .  S
O478       Zr507   2.337       .  S
O479       Zr505   2.336       .  S
O479       Zr506   2.343       .  S
H484        O485   0.966       .  S
O485       Zr504   2.337       .  S
O485       Zr506   2.338       .  S
H486        O487   0.966       .  S
O487       Zr505   2.332       .  S
O487       Zr507   2.335       .  S
O488       Zr504   2.472       .  S
O488        C511   1.300       .  A
O489       Zr505   2.482       .  S
O489        C512   1.300       .  A
O490       Zr506   2.478       .  S
O490        C513   1.301       .  A
O491       Zr507   2.481       .  S
O491        C514   1.300       .  A
O492       Zr507   2.472       .  S
O492        C515   1.300       .  A
O493       Zr506   2.484       .  S
O493        C516   1.300       .  A
O494       Zr508   2.471       .  S
O494        C517   1.299       .  A
O495       Zr508   2.480       .  S
O495        C518   1.300       .  A
O496       Zr506   2.401       .  S
O496        C517   1.283       .  A
O497       Zr507   2.385       .  S
O497        C518   1.282       .  A
O498       Zr504   2.395       .  S
O498        C513   1.282       .  A
O499       Zr505   2.383       .  S
O499        C516   1.282       .  A
O500       Zr505   2.402       .  S
O500        C515   1.284       .  A
O501       Zr504   2.383       .  S
O501        C514   1.282       .  A
O502       Zr508   2.398       .  S
O502        C511   1.283       .  A
O503       Zr508   2.382       .  S
O503        C512   1.282       .  A
Zr504       O510   2.333       .  S
Zr504       O522   2.336       .  S
Zr505       O509   2.340       .  S
Zr505       O520   2.344       .  S
Zr506       O510   2.334       .  S
Zr506       O520   2.336       .  S
Zr507       O509   2.337       .  S
Zr507       O522   2.342       .  S
Zr508       O509   2.343       .  S
Zr508       O510   2.333       .  S
Zr508       O522   2.337       .  S
Zr508       O520   2.338       .  S
H519        O520   0.966       .  S
H521        O522   0.966       .  S
C523        N524   1.367       .  A
C523        N528   1.348       .  A
C523        C716   1.468       .  S
N524        C525   1.367       .  A
C525        N526   1.368       .  A
N526        C527   1.368       .  A
C527        N528   1.348       .  A
C527        C583   1.469       .  S
C529        N530   1.358       .  A
C529        N534   1.351       .  A
C529        C578   1.463       .  S
N530        C531   1.358       .  A
C531        N532   1.351       .  A
C531        C710   1.464       .  S
N532        C533   1.357       .  A
C533        N534   1.357       .  A
C533        C721   1.409       .  S
O535       Zr571   2.471       .  S
O535        C546   1.300       .  A
O536       Zr570   2.478       .  S
O536        C547   1.299       .  A
O537       Zr543   2.480       .  S
O537        C548   1.300       .  A
O538       Zr543   2.470       .  S
O538        C549   1.300       .  A
O539       Zr573   2.396       .  S
O539        C549   1.283       .  A
O540       Zr572   2.382       .  S
O540        C548   1.282       .  A
O541       Zr543   2.386       .  S
O541        C547   1.283       .  A
O542       Zr543   2.400       .  S
O542        C546   1.283       .  A
Zr543       O544   2.338       .  S
Zr543       O545   2.336       .  S
Zr543       O553   2.333       .  S
Zr543       O551   2.341       .  S
O544       Zr570   2.342       .  S
O544       Zr573   2.337       .  S
O545       Zr571   2.338       .  S
O545       Zr572   2.340       .  S
H550        O551   0.966       .  S
O551       Zr570   2.338       .  S
O551       Zr572   2.338       .  S
H552        O553   0.966       .  S
O553       Zr571   2.333       .  S
O553       Zr573   2.334       .  S
O554       Zr570   2.475       .  S
O554        C577   1.300       .  A
O555       Zr571   2.484       .  S
O555        C578   1.300       .  A
O556       Zr572   2.472       .  S
O556        C579   1.300       .  A
O557       Zr573   2.481       .  S
O557        C580   1.300       .  A
O558       Zr573   2.473       .  S
O558        C581   1.300       .  A
O559       Zr572   2.482       .  S
O559        C582   1.300       .  A
O560       Zr574   2.476       .  S
O560        C583   1.301       .  A
O561       Zr574   2.475       .  S
O561        C584   1.299       .  A
O562       Zr572   2.398       .  S
O562        C583   1.283       .  A
O563       Zr573   2.386       .  S
O563        C584   1.283       .  A
O564       Zr570   2.397       .  S
O564        C579   1.283       .  A
O565       Zr571   2.383       .  S
O565        C582   1.282       .  A
O566       Zr571   2.402       .  S
O566        C581   1.284       .  A
O567       Zr570   2.387       .  S
O567        C580   1.283       .  A
O568       Zr574   2.396       .  S
O568        C577   1.282       .  A
O569       Zr574   2.382       .  S
O569        C578   1.282       .  A
Zr570       O576   2.335       .  S
Zr570       O588   2.337       .  S
Zr571       O575   2.335       .  S
Zr571       O586   2.342       .  S
Zr572       O576   2.334       .  S
Zr572       O586   2.337       .  S
Zr573       O575   2.336       .  S
Zr573       O588   2.344       .  S
Zr574       O575   2.343       .  S
Zr574       O576   2.332       .  S
Zr574       O588   2.340       .  S
Zr574       O586   2.336       .  S
C577        C605   1.467       .  S
C580        C607   1.464       .  S
H585        O586   0.966       .  S
H587        O588   0.966       .  S
C589        N590   1.366       .  A
C589        N594   1.347       .  A
N590        C591   1.366       .  A
C591        N592   1.368       .  A
N592        C593   1.368       .  A
C593        N594   1.347       .  A
C593        C662   1.468       .  S
C595        N596   1.351       .  A
C595        N600   1.358       .  A
N596        C597   1.357       .  A
C597        N598   1.357       .  A
C597        C722   1.409       .  S
N598        C599   1.351       .  A
C599        N600   1.357       .  A
C599        C656   1.462       .  S
C601        N602   1.366       .  A
C601        N606   1.347       .  A
C601        C655   1.464       .  S
N602        C603   1.366       .  A
C603        N604   1.367       .  A
N604        C605   1.367       .  A
C605        N606   1.346       .  A
C607        N608   1.357       .  A
C607        N612   1.351       .  A
N608        C609   1.357       .  A
C609        N610   1.351       .  A
C609        C657   1.463       .  S
N610        C611   1.357       .  A
C611        N612   1.358       .  A
C611        C724   1.409       .  S
O613       Zr649   2.478       .  S
O613        C624   1.301       .  A
O614       Zr648   2.481       .  S
O614        C625   1.300       .  A
O615       Zr621   2.468       .  S
O615        C626   1.299       .  A
O616       Zr621   2.477       .  S
O616        C627   1.299       .  A
O617       Zr651   2.383       .  S
O617        C627   1.282       .  A
O618       Zr650   2.395       .  S
O618        C626   1.283       .  A
O619       Zr621   2.384       .  S
O619        C625   1.282       .  A
O620       Zr621   2.394       .  S
O620        C624   1.282       .  A
Zr621       O622   2.339       .  S
Zr621       O623   2.335       .  S
Zr621       O631   2.335       .  S
Zr621       O629   2.336       .  S
O622       Zr648   2.336       .  S
O622       Zr651   2.336       .  S
O623       Zr649   2.332       .  S
O623       Zr650   2.334       .  S
H628        O629   0.966       .  S
O629       Zr648   2.341       .  S
O629       Zr650   2.338       .  S
H630        O631   0.966       .  S
O631       Zr649   2.337       .  S
O631       Zr651   2.341       .  S
O632       Zr648   2.470       .  S
O632        C655   1.300       .  A
O633       Zr649   2.480       .  S
O633        C656   1.300       .  A
O634       Zr650   2.479       .  S
O634        C657   1.299       .  A
O635       Zr651   2.475       .  S
O635        C658   1.300       .  A
O636       Zr651   2.482       .  S
O636        C659   1.300       .  A
O637       Zr650   2.475       .  S
O637        C660   1.300       .  A
O638       Zr652   2.483       .  S
O638        C661   1.300       .  A
O639       Zr652   2.477       .  S
O639        C662   1.301       .  A
O640       Zr650   2.384       .  S
O640        C661   1.282       .  A
O641       Zr651   2.398       .  S
O641        C662   1.283       .  A
O642       Zr648   2.385       .  S
O642        C657   1.282       .  A
O643       Zr649   2.400       .  S
O643        C660   1.283       .  A
O644       Zr649   2.383       .  S
O644        C659   1.282       .  A
O645       Zr648   2.397       .  S
O645        C658   1.283       .  A
O646       Zr652   2.398       .  S
O646        C655   1.283       .  A
O647       Zr652   2.385       .  S
O647        C656   1.282       .  A
Zr648       O654   2.338       .  S
Zr648       O666   2.334       .  S
Zr649       O653   2.343       .  S
Zr649       O664   2.338       .  S
Zr650       O654   2.343       .  S
Zr650       O664   2.337       .  S
Zr651       O653   2.337       .  S
Zr651       O666   2.332       .  S
Zr652       O653   2.336       .  S
Zr652       O654   2.339       .  S
Zr652       O666   2.334       .  S
Zr652       O664   2.344       .  S
H663        O664   0.966       .  S
H665        O666   0.966       .  S
O667       Zr703   2.479       .  S
O667        C678   1.301       .  A
O668       Zr702   2.480       .  S
O668        C679   1.299       .  A
O669       Zr675   2.472       .  S
O669        C680   1.300       .  A
O670       Zr675   2.480       .  S
O670        C681   1.300       .  A
O671       Zr705   2.384       .  S
O671        C681   1.282       .  A
O672       Zr704   2.396       .  S
O672        C680   1.282       .  A
O673       Zr675   2.384       .  S
O673        C679   1.282       .  A
O674       Zr675   2.399       .  S
O674        C678   1.283       .  A
Zr675       O676   2.340       .  S
Zr675       O677   2.333       .  S
Zr675       O685   2.336       .  S
Zr675       O683   2.339       .  S
O676       Zr702   2.336       .  S
O676       Zr705   2.335       .  S
O677       Zr703   2.333       .  S
O677       Zr704   2.334       .  S
H682        O683   0.966       .  S
O683       Zr702   2.343       .  S
O683       Zr704   2.339       .  S
H684        O685   0.966       .  S
O685       Zr703   2.338       .  S
O685       Zr705   2.343       .  S
O686       Zr702   2.472       .  S
O686        C709   1.300       .  A
O687       Zr703   2.485       .  S
O687        C710   1.301       .  A
O688       Zr704   2.477       .  S
O688        C711   1.299       .  A
O689       Zr705   2.475       .  S
O689        C712   1.301       .  A
O690       Zr705   2.479       .  S
O690        C713   1.300       .  A
O691       Zr704   2.469       .  S
O691        C714   1.299       .  A
O692       Zr706   2.482       .  S
O692        C715   1.300       .  A
O693       Zr706   2.475       .  S
O693        C716   1.300       .  A
O694       Zr704   2.385       .  S
O694        C715   1.282       .  A
O695       Zr705   2.400       .  S
O695        C716   1.283       .  A
O696       Zr702   2.387       .  S
O696        C711   1.283       .  A
O697       Zr703   2.399       .  S
O697        C714   1.283       .  A
O698       Zr703   2.381       .  S
O698        C713   1.282       .  A
O699       Zr702   2.396       .  S
O699        C712   1.283       .  A
O700       Zr706   2.400       .  S
O700        C709   1.283       .  A
O701       Zr706   2.382       .  S
O701        C710   1.282       .  A
Zr702       O708   2.336       .  S
Zr702       O720   2.335       .  S
Zr703       O707   2.343       .  S
Zr703       O718   2.339       .  S
Zr704       O708   2.341       .  S
Zr704       O718   2.338       .  S
Zr705       O707   2.337       .  S
Zr705       O720   2.333       .  S
Zr706       O707   2.337       .  S
Zr706       O708   2.337       .  S
Zr706       O720   2.333       .  S
Zr706       O718   2.345       .  S
H717        O718   0.966       .  S
H719        O720   0.966       .  S
C721        C722   1.188   1_554  T
C723        C724   1.188   1_565  T
C725        C726   1.187   1_554  T
C727        C728   1.188       .  T
C729        C730   1.188   1_565  T
C731        C732   1.188       .  T
C733        C734   1.188       .  T
C735        C736   1.188       .  T
C737        C738   1.188       .  T
C739        C740   1.188       .  T
C741        C742   1.188       .  T
C743        C744   1.187       .  T
