geometry optimzed in LAMMPS
_audit_creation_date              2020-11-30 
_audit_creation_method            'lammps2cif' 
_symmetry_space_group_name_H-M    'P1' 
_symmetry_Int_Tables_number       1 
_symmetry_cell_setting            triclinic 
loop_ 
_symmetry_equiv_pos_as_xyz 
  x,y,z 
_cell_length_a                    33.98548147 
_cell_length_b                    32.98169601532447 
_cell_length_c                    66.00372845631982 
_cell_angle_alpha                 89.18607020436275 
_cell_angle_beta                  88.89458784305553 
_cell_angle_gamma                 91.09612636000706 
loop_ 
_atom_site_label 
_atom_site_type_symbol 
_atom_site_fract_x 
_atom_site_fract_y 
_atom_site_fract_z 
_atom_site_charge 
N1          N  0.41663075  0.26348364  0.40444951    -0.36900
N2          N  0.45216763  0.32042633  0.37740112    -0.57400
N3          N  0.45828632  0.25593568  0.34592582    -0.36800
N4          N  0.42408736  0.19916155  0.37353655    -0.57400
C5          C  0.42038033  0.29514280  0.41729360     0.26700
C6          C  0.41136304  0.22941703  0.41585820     0.26700
C7          C  0.48414350  0.28469627  0.33908088     0.26700
C8          C  0.46758470  0.22088708  0.33658295     0.26700
C9          C  0.44063862  0.34723575  0.39162157     0.35400
C10         C  0.46324455  0.34236993  0.36078196     0.35400
C11         C  0.40308262  0.17895742  0.38805831     0.35400
C12         C  0.42357985  0.17571535  0.35689450     0.35400
C13         C  0.41586531  0.28088562  0.43707506    -0.22100
C14         C  0.41179425  0.23949055  0.43620380    -0.22100
C15         C  0.50991775  0.26792347  0.32507519    -0.22100
C16         C  0.49936197  0.22765101  0.32344636    -0.22100
C17         C  0.44581247  0.38648851  0.38415554    -0.23200
C18         C  0.45891016  0.38339317  0.36448571    -0.23200
C19         C  0.38855020  0.14262995  0.38051872    -0.23200
C20         C  0.40175445  0.14051593  0.36075515    -0.23200
C21         C  0.42657543  0.33649081  0.41141703    -0.18500
C22         C  0.40114789  0.19033708  0.40860362    -0.18500
C23         C  0.44773905  0.18313822  0.33958889    -0.18500
C24         C  0.48228444  0.32649010  0.34341469    -0.18500
H25         H  0.41523133  0.29803905  0.45088040     0.14400
H26         H  0.40746922  0.21935132  0.44917522     0.14400
H27         H  0.53334071  0.28337372  0.31655069     0.14400
H28         H  0.51347248  0.20589523  0.31371626     0.14400
H29         H  0.44077899  0.41458356  0.39195974     0.12700
H30         H  0.46602609  0.40868872  0.35436613     0.12700
H31         H  0.37162534  0.11929813  0.38866757     0.12700
H32         H  0.39728297  0.11530080  0.35067993     0.12700
H33         H  0.41272520  0.26530658  0.38890156     0.25900
H34         H  0.43321417  0.26133793  0.35471296     0.25900
N35         N  0.18983662  0.25671388  0.34988533    -0.36900
N36         N  0.18000257  0.31063908  0.38143332    -0.57400
N37         N  0.17982223  0.24159652  0.41211267    -0.36800
N38         N  0.19289963  0.18743031  0.37925863    -0.57400
C39         C  0.19511865  0.29229074  0.33943662     0.26700
C40         C  0.20538187  0.22702208  0.33858513     0.26700
C41         C  0.18878150  0.27386678  0.42368538     0.26700
C42         C  0.19044423  0.20768569  0.42249380     0.26700
C43         C  0.17070271  0.33663451  0.36622741     0.35400
C44         C  0.17295263  0.32975914  0.39898059     0.35400
C45         C  0.18936374  0.16773221  0.36154062     0.35400
C46         C  0.18383101  0.16006295  0.39425414     0.35400
C47         C  0.21480619  0.28513314  0.32131784    -0.22100
C48         C  0.22114176  0.24390314  0.32073260    -0.22100
C49         C  0.20326784  0.26008765  0.44206419    -0.22100
C50         C  0.20431402  0.21843627  0.44128551    -0.22100
C51         C  0.15660835  0.37217645  0.37424278    -0.23200
C52         C  0.15955292  0.36848057  0.39487866    -0.23200
C53         C  0.17802547  0.12762022  0.36530795    -0.23200
C54         C  0.17489429  0.12270617  0.38603296    -0.23200
C55         C  0.17978366  0.33018906  0.34545446    -0.18500
C56         C  0.19819996  0.18495126  0.34210496    -0.18500
C57         C  0.18860708  0.16742383  0.41519606    -0.18500
C58         C  0.18531516  0.31552912  0.41809283    -0.18500
H59         H  0.22252187  0.30707658  0.30948576     0.14400
H60         H  0.23410005  0.22780763  0.30816055     0.14400
H61         H  0.21282660  0.27822776  0.45465696     0.14400
H62         H  0.21504104  0.19848392  0.45301624     0.14400
H63         H  0.14744716  0.39903187  0.36616378     0.12700
H64         H  0.15341254  0.39232822  0.40543500     0.12700
H65         H  0.17337969  0.10406658  0.35431051     0.12700
H66         H  0.16767582  0.09473293  0.39416367     0.12700
H67         H  0.17084344  0.25155807  0.36224652     0.25900
H68         H  0.16604284  0.24283394  0.39818768     0.25900
O69         O  0.35280750  0.42498610  0.48656328    -0.80400
O70         O  0.34701242  0.07522104  0.52753121    -0.80400
O71         O  0.31998835  0.04494509  0.46128103    -0.80400
O72         O  0.35015087  0.48748349  0.54455695    -0.80400
O73         O  0.35245619  0.07334807  0.48581548    -0.80500
O74         O  0.34569950  0.42958864  0.52881443    -0.80400
O75         O  0.30898019  0.05061545  0.55190830    -0.80400
O76         O  0.35617235  0.48168999  0.47040548    -0.80400
C77         C  0.36769937  0.44619042  0.47224861     1.09300
C78         C  0.33605842  0.07482066  0.54604353     1.09200
C79         C  0.34453722  0.07138148  0.46730013     1.09300
C80         C  0.35991080  0.45110050  0.54298370     1.09200
O81         O  0.25875725  0.43376215  0.52316032    -0.80400
O82         O  0.26761899  0.07589153  0.48295762    -0.80500
O83         O  0.28560913  0.46496944  0.45411125    -0.80400
O84         O  0.24222138  0.01526187  0.53315439    -0.80400
O85         O  0.26147567  0.07631365  0.52422573    -0.80400
O86         O  0.26747067  0.43348579  0.48289803    -0.80400
O87         O  0.28049223  0.45558830  0.55130734    -0.80400
O88         O  0.24560915  0.01473708  0.47834251    -0.80400
Co89       Co  0.30759166  0.43869232  0.50550718     1.51500
Co90       Co  0.30774689  0.06930589  0.50517239     1.51700
Co91       Co  0.30103479  0.99520129  0.47692181     1.51600
Co92       Co  0.29826979  0.00308457  0.53501723     1.51500
O93         O  0.31243628  0.00523388  0.50553680    -1.42300
C94         C  0.25981461  0.43053228  0.54217014     1.09200
C95         C  0.24334139  0.05226679  0.47448380     1.09300
C96         C  0.26738473  0.43626037  0.46348839     1.09300
C97         C  0.23623672  0.05263890  0.53275675     1.09200
N98         N  0.40365486  0.26189806  0.61082409    -0.36900
N99         N  0.41405937  0.19629955  0.64113321    -0.57400
N100        N  0.42133231  0.25687929  0.67286478    -0.36800
N101        N  0.41029567  0.32206630  0.64245911    -0.57400
C102        C  0.39535854  0.22932835  0.59922488     0.26700
C103        C  0.39742382  0.29587034  0.59951287     0.26700
C104        C  0.43401915  0.22366008  0.68314467     0.26700
C105        C  0.42974135  0.29001319  0.68415094     0.26700
C106        C  0.40503996  0.17307872  0.62504365     0.35400
C107        C  0.42278205  0.17076946  0.65661845     0.35400
C108        C  0.40604483  0.34800052  0.62655331     0.35400
C109        C  0.41097463  0.34481282  0.65937322     0.35400
C110        C  0.38546284  0.24296088  0.57999589    -0.22100
C111        C  0.38633528  0.28456125  0.58026337    -0.22100
C112        C  0.94821935  0.23562856  0.70179638    -0.22100
C113        C  0.94640681  0.27711006  0.70223083    -0.22100
C114        C  0.40748076  0.13244025  0.63051060    -0.23200
C115        C  0.41986536  0.13103398  0.65016758    -0.23200
C116        C  0.40498621  0.38743841  0.63349897    -0.23200
C117        C  0.40531835  0.38515978  0.65415426    -0.23200
C118        C  0.39497303  0.18757711  0.60540163    -0.18500
C119        C  0.40026856  0.33690731  0.60601528    -0.18500
C120        C  0.42313340  0.33148053  0.67887198    -0.18500
C121        C  0.43462357  0.18264551  0.67628767    -0.18500
H122        H  0.37765583  0.22491857  0.56706087     0.14400
H123        H  0.37912615  0.30413516  0.56765578     0.14400
H124        H  0.95994616  0.21678968  0.71370072     0.14400
H125        H  0.95650728  0.29567974  0.71451520     0.14400
H126        H  0.40182764  0.10627333  0.62123676     0.12700
H127        H  0.42566568  0.10363395  0.65869465     0.12700
H128        H  0.40303198  0.41528102  0.62476932     0.12700
H129        H  0.40433248  0.41098374  0.66406109     0.12700
H130        H  0.41408674  0.26084867  0.62539721     0.25900
H131        H  0.40614979  0.25697096  0.65941473     0.25900
N132        N  0.15326030  0.23348814  0.65755792    -0.36900
N133        N  0.16194314  0.17093573  0.62717247    -0.57400
N134        N  0.16681681  0.23327458  0.59525821    -0.36800
N135        N  0.15826943  0.29589273  0.62586474    -0.57400
C136        C  0.15191233  0.20047386  0.67004769     0.26700
C137        C  0.14742512  0.26672072  0.66899584     0.26700
C138        C  0.17901843  0.20022036  0.58507825     0.26700
C139        C  0.18016625  0.26641264  0.58461860     0.26700
C140        C  0.15748383  0.14629056  0.64363929     0.35400
C141        C  0.15960759  0.14706949  0.61073535     0.35400
C142        C  0.14749828  0.31986910  0.64131658     0.35400
C143        C  0.16188985  0.32005199  0.60927216     0.35400
C144        C  0.14571750  0.21320898  0.68980703    -0.22100
C145        C  0.14339193  0.25476500  0.68916441    -0.22100
C146        C  0.19911180  0.21271388  0.56752213    -0.22100
C147        C  0.19915713  0.25415063  0.56702653    -0.22100
C148        C  0.15402221  0.10634728  0.63741319    -0.23200
C149        C  0.15206949  0.10726563  0.61679220    -0.23200
C150        C  0.14350963  0.35943220  0.63438046    -0.23200
C151        C  0.15368739  0.35974502  0.61424523    -0.23200
C152        C  0.15372535  0.15906981  0.66412848    -0.18500
C153        C  0.14286327  0.30727194  0.66179279    -0.18500
C154        C  0.17689945  0.30759521  0.59036019    -0.18500
C155        C  0.17167370  0.15904041  0.59084794    -0.18500
H156        H  0.14216054  0.19461965  0.70336650     0.14400
H157        H  0.13802593  0.27385657  0.70208950     0.14400
H158        H  0.21205054  0.19415980  0.55594724     0.14400
H159        H  0.21246272  0.27304071  0.55513063     0.14400
H160        H  0.15184975  0.07900074  0.64660935     0.12700
H161        H  0.14885229  0.08088145  0.60736788     0.12700
H162        H  0.13550446  0.38577425  0.64300863     0.12700
H163        H  0.15532738  0.38646759  0.60458147     0.12700
H164        H  0.15638164  0.23328226  0.64202396     0.25900
H165        H  0.14821969  0.23309470  0.60793335     0.25900
O166        O  0.05056736  0.48744336  0.29875223    -0.80400
O167        O  0.09923289  0.51096888  0.21085747    -0.80400
O168        O  0.48054767  0.47413224  0.24849006    -0.80400
O169        O  0.14098972  0.46080757  0.27119771    -0.80400
O170        O  0.02934861  0.47879348  0.22626643    -0.80500
O171        O  0.12914508  0.49851083  0.29752597    -0.80400
O172        O  0.12412239  0.46770665  0.23175525    -0.80400
O173        O  0.54310611  0.45185671  0.27141043    -0.80400
C174        C  0.54416136  0.45347437  0.29047254     1.09300
C175        C  0.11899843  0.47931933  0.21381374     1.09200
C176        C  0.49396006  0.46574657  0.23106240     1.09300
C177        C  0.14060496  0.46504887  0.29013028     1.09200
O178        O  0.11647150  0.07959579  0.27942829    -0.80400
O179        O  0.02987564  0.05482832  0.21086775    -0.80500
O180        O  0.49750035  0.02396023  0.28084668    -0.80400
O181        O  0.15039896  0.05312666  0.23145053    -0.80400
O182        O  0.09385279  0.08550955  0.23119411    -0.80400
O183        O  0.04128615  0.07161963  0.28284605    -0.80400
O184        O  0.16849703  0.04556355  0.27214782    -0.80400
O185        O  0.50383305  0.05158192  0.24187632    -0.80400
Co186      Co  0.08419895  0.53433436  0.28799754     1.51500
Co187      Co  0.06174339  0.53370607  0.23156055     1.51700
Co188      Co  0.52753647  0.50058735  0.25650015     1.51600
Co189      Co  0.14231983  0.50692908  0.25190168     1.51500
O190        O  0.08442652  0.51890274  0.25865236    -1.42300
C191        C  0.15289402  0.07708959  0.27952935     1.09200
C192        C  0.50181388  0.06270101  0.22302906     1.09300
C193        C  0.50743321  0.05876802  0.28725438     1.09300
C194        C  0.13044786  0.08409925  0.22651631     1.09200
O195        O  0.47072922  0.22037354  0.99160659    -0.80400
O196        O  0.13279736  0.22745265  0.02411314    -0.80400
O197        O  0.09956739  0.19699350  0.98381968    -0.80400
O198        O  0.04623450  0.18848164  0.03353249    -0.80400
O199        O  0.14028763  0.24829872  0.98503309    -0.80500
O200        O  0.48873136  0.21743988  0.03146195    -0.80400
O201        O  0.10409332  0.22424941  0.05444965    -0.80400
O202        O  0.02136510  0.18316928  0.98514423    -0.80400
C203        C  0.48471044  0.18763845  0.98508586     1.09300
C204        C  0.13334990  0.21681252  0.04305463     1.09200
C205        C  0.13258075  0.21239128  0.97929204     1.09300
C206        C  0.50990606  0.18907010  0.03820088     1.09200
O207        O  0.50622823  0.30473975  0.02955136    -0.80400
O208        O  0.09381897  0.32045938  0.98890863    -0.80500
O209        O  0.00912021  0.26122903  0.96496662    -0.80400
O210        O  0.10330440  0.29897965  0.03768976    -0.80400
O211        O  0.15289997  0.30538246  0.01575403    -0.80400
O212        O  0.49321041  0.30374117  0.98869281    -0.80400
O213        O  0.03232208  0.26483296  0.05180952    -0.80400
O214        O  0.08704647  0.27684778  0.96429056    -0.80400
Co215      Co  0.49388906  0.26190797  0.01015546     1.51500
Co216      Co  0.10800684  0.27531322  0.00727192     1.51700
Co217      Co  0.05455885  0.23005679  0.97639795     1.51600
Co218      Co  0.07382748  0.24226649  0.03270025     1.51500
O219        O  0.05253193  0.25262336  0.00468946    -1.42300
C220        C  0.50870205  0.29297568  0.04764168     1.09200
C221        C  0.09667047  0.31231470  0.97021872     1.09300
C222        C  0.99057743  0.29241698  0.97060666     1.09300
C223        C  0.13858365  0.31302730  0.03316944     1.09200
N224        N  0.30079953  0.38559138  0.85496685    -0.36900
N225        N  0.35895624  0.37925359  0.88487993    -0.57400
N226        N  0.29811404  0.37564303  0.91734263    -0.36800
N227        N  0.24056803  0.38310405  0.88622536    -0.57400
C228        C  0.33287903  0.37813432  0.84335941     0.26700
C229        C  0.26891951  0.37506985  0.84422603     0.26700
C230        C  0.32879203  0.35789874  0.92647830     0.26700
C231        C  0.26471166  0.36357537  0.92750070     0.26700
C232        C  0.38266797  0.39108966  0.86909156     0.35400
C233        C  0.38118080  0.37998316  0.90157352     0.35400
C234        C  0.21902724  0.39332616  0.87004683     0.35400
C235        C  0.21840970  0.39105860  0.90283854     0.35400
C236        C  0.32148978  0.36242507  0.82497593    -0.22100
C237        C  0.28090983  0.35984709  0.82564266    -0.22100
C238        C  0.31482882  0.33514608  0.94305712    -0.22100
C239        C  0.27431859  0.33875283  0.94369749    -0.22100
C240        C  0.42013518  0.39995701  0.87582579    -0.23200
C241        C  0.41933600  0.39241590  0.89640442    -0.23200
C242        C  0.18311744  0.40844347  0.87642800    -0.23200
C243        C  0.18278951  0.40712624  0.89721017    -0.23200
C244        C  0.37167196  0.38883848  0.84857343    -0.18500
C245        C  0.22994175  0.38483520  0.84978434    -0.18500
C246        C  0.22610047  0.37477581  0.92220528    -0.18500
C247        C  0.36900255  0.36305791  0.92051923    -0.18500
H248        H  0.34039695  0.35446562  0.81231957     0.14400
H249        H  0.26230500  0.35008728  0.81343901     0.14400
H250        H  0.33201096  0.31760019  0.95353649     0.14400
H251        H  0.25425044  0.32440775  0.95466057     0.14400
H252        H  0.44582482  0.40856305  0.86673876     0.12700
H253        H  0.44427522  0.39439939  0.90631931     0.12700
H254        H  0.15908586  0.41813527  0.86713101     0.12700
H255        H  0.15820908  0.41463147  0.90704079     0.12700
H256        H  0.30064810  0.40292870  0.86803212     0.25900
H257        H  0.30015548  0.39704671  0.90559091     0.25900
N258        N  0.30882112  0.12513007  0.92000869    -0.36900
N259        N  0.25171319  0.11082048  0.88794139    -0.57400
N260        N  0.31530013  0.10052270  0.85908582    -0.36800
N261        N  0.37261208  0.11229646  0.89187239    -0.57400
C262        C  0.27750612  0.14768598  0.92523128     0.26700
C263        C  0.34039163  0.14193740  0.92907504     0.26700
C264        C  0.28489414  0.08807263  0.84744243     0.26700
C265        C  0.34922599  0.09193547  0.84907229     0.26700
C266        C  0.22755259  0.11467638  0.90427757     0.35400
C267        C  0.22966827  0.09642227  0.87273770     0.35400
C268        C  0.39446329  0.12292162  0.90799220     0.35400
C269        C  0.39711105  0.11366080  0.87551674     0.35400
C270        C  0.28964717  0.18014957  0.93686003    -0.22100
C271        C  0.32964326  0.17699073  0.93891712    -0.22100
C272        C  0.29995318  0.07283764  0.82946447    -0.22100
C273        C  0.34038372  0.07531461  0.83048989    -0.22100
C274        C  0.19008627  0.10076132  0.89981931    -0.23200
C275        C  0.19106504  0.09054409  0.87967429    -0.23200
C276        C  0.43231386  0.13377283  0.90148999    -0.23200
C277        C  0.43429375  0.12671718  0.88108963    -0.23200
C278        C  0.23790794  0.13698763  0.92159436    -0.18500
C279        C  0.37889186  0.12687206  0.92795244    -0.18500
C280        C  0.38802386  0.09866915  0.85615506    -0.18500
C281        C  0.24400803  0.08799085  0.85283485    -0.18500
H282        H  0.27146230  0.20345345  0.94331957     0.14400
H283        H  0.34859460  0.19781400  0.94691401     0.14400
H284        H  0.28356738  0.06019471  0.81707159     0.14400
H285        H  0.36095366  0.06556910  0.81890616     0.14400
H286        H  0.16416922  0.10072298  0.90960982     0.11100
H287        H  0.16601594  0.08005650  0.87120614     0.12700
H288        H  0.45594206  0.14657478  0.91023134     0.12700
H289        H  0.46012934  0.13103382  0.87139579     0.12700
H290        H  0.30812885  0.09740331  0.91256084     0.25900
H291        H  0.31354491  0.11541422  0.87277350     0.25900
O292        O  0.09792214  0.41811759  0.73735942    -0.80400
O293        O  0.10292597  0.06198935  0.78475200    -0.80400
O294        O  0.10265846  0.01045796  0.72711107    -0.80400
O295        O  0.07449306  0.43634220  0.80362929    -0.80400
O296        O  0.09864321  0.06661508  0.74294171    -0.80500
O297        O  0.10513587  0.41167254  0.77729433    -0.80400
O298        O  0.11138920  0.00189897  0.79546206    -0.80400
O299        O  0.06008036  0.45001727  0.71620566    -0.80400
C300        C  0.08595841  0.42349226  0.71965313     1.09300
C301        C  0.12186595  0.03816016  0.79577119     1.09200
C302        C  0.11307710  0.04652963  0.72852896     1.09300
C303        C  0.10307747  0.41693853  0.79603261     1.09200
O304        O  0.02011581  0.40718547  0.78277496    -0.80400
O305        O  0.01325526  0.05731700  0.74514259    -0.80500
O306        O  0.99308403  0.47684377  0.73995819    -0.80400
O307        O  0.04123539  0.01068895  0.81496539    -0.80400
O308        O  0.01838683  0.04599496  0.78896380    -0.80400
O309        O  0.01329938  0.41459884  0.74194875    -0.80400
O310        O  0.00108010  0.46858222  0.78668788    -0.80400
O311        O  0.02926051  0.03298240  0.71507549    -0.80400
Co312      Co  0.05974890  0.41765778  0.76007762     1.51500
Co313      Co  0.05946540  0.04836348  0.76504252     1.51700
Co314      Co  0.04842895  0.49643382  0.73521951     1.51600
Co315      Co  0.05629690  0.48773224  0.78997528     1.51500
O316        O  0.06741897  0.48072805  0.76167970    -1.42300
C317        C  0.99422196  0.43122680  0.78906547     1.09200
C318        C  0.01196172  0.05949772  0.72554158     1.09300
C319        C  0.98781005  0.43960158  0.73636339     1.09300
C320        C  0.01808790  0.03717431  0.80823189     1.09200
N321        N  0.32504855  0.14770056  0.10164925    -0.36900
N322        N  0.37733086  0.12524135  0.13345781    -0.57400
N323        N  0.31297494  0.13579361  0.16371247    -0.36800
N324        N  0.25958591  0.15338995  0.13166797    -0.57400
C325        C  0.35749540  0.14054737  0.09003337     0.26700
C326        C  0.29421898  0.15211791  0.08920420     0.26700
C327        C  0.34090052  0.11906351  0.17535665     0.26700
C328        C  0.27752473  0.12916850  0.17328986     0.26700
C329        C  0.40327889  0.12222517  0.11771500     0.35400
C330        C  0.39758455  0.11754676  0.15045717     0.35400
C331        C  0.24356573  0.17109897  0.11532489     0.35400
C332        C  0.23715571  0.16351534  0.14792914     0.35400
C333        C  0.34707717  0.14173857  0.06980384    -0.22100
C334        C  0.30710265  0.14722628  0.06933908    -0.22100
C335        C  0.32308833  0.10288557  0.19285762    -0.22100
C336        C  0.28327689  0.10722961  0.19102457    -0.22100
C337        C  0.43942414  0.11002443  0.12472066    -0.23200
C338        C  0.43600623  0.10757488  0.14539021    -0.23200
C339        C  0.21083256  0.19283445  0.12125731    -0.23200
C340        C  0.20733988  0.18883079  0.14199662    -0.23200
C341        C  0.39607181  0.13320660  0.09723147    -0.18500
C342        C  0.25597368  0.16508053  0.09498425    -0.18500
C343        C  0.24083851  0.14567860  0.16739360    -0.18500
C344        C  0.38186433  0.11696454  0.17050827    -0.18500
H345        H  0.36585230  0.13901440  0.05653782     0.14400
H346        H  0.28996837  0.14965531  0.05574132     0.14400
H347        H  0.33684505  0.08822831  0.20555565     0.14400
H348        H  0.26137216  0.09635977  0.20199295     0.14400
H349        H  0.46590134  0.10455018  0.11588539     0.12700
H350        H  0.45922028  0.09894843  0.15548951     0.12700
H351        H  0.19098535  0.20906341  0.11158485     0.12700
H352        H  0.18425171  0.20112102  0.15147263     0.12700
H353        H  0.32453703  0.15377036  0.11705407     0.25900
H354        H  0.31874744  0.15441274  0.15107419     0.25900
N355        N  0.31083013  0.40901096  0.16137824    -0.36900
N356        N  0.25810582  0.40210089  0.12578058    -0.57400
N357        N  0.32246789  0.37294383  0.10208901    -0.36800
N358        N  0.37609642  0.38435074  0.13667943    -0.57400
C359        C  0.27822048  0.42732831  0.16842941     0.26700
C360        C  0.34082674  0.41863767  0.17388488     0.26700
C361        C  0.29448381  0.37173687  0.08764824     0.26700
C362        C  0.35782486  0.36713361  0.09295869     0.26700
C363        C  0.23146199  0.41175303  0.14026890     0.35400
C364        C  0.23733839  0.39226667  0.10916494     0.35400
C365        C  0.39296102  0.38277991  0.15505364     0.35400
C366        C  0.39963711  0.36374376  0.12398316     0.35400
C367        C  0.28708591  0.44784092  0.18600749    -0.22100
C368        C  0.32642680  0.44231191  0.18944112    -0.22100
C369        C  0.31238822  0.36409277  0.06909969    -0.22100
C370        C  0.35225074  0.36248646  0.07230393    -0.22100
C371        C  0.19376505  0.40943553  0.13258100    -0.23200
C372        C  0.19755584  0.39803321  0.11285071    -0.23200
C373        C  0.42735276  0.36100603  0.15405454    -0.23200
C374        C  0.43159342  0.34888178  0.13435381    -0.23200
C375        C  0.24012932  0.42456102  0.16011556    -0.18500
C376        C  0.38031642  0.40516505  0.17196454    -0.18500
C377        C  0.39398418  0.35988667  0.10294444    -0.18500
C378        C  0.25322221  0.37615143  0.09097774    -0.18500
H379        H  0.26721255  0.46494283  0.19545891     0.14400
H380        H  0.34230392  0.45391491  0.20222889     0.14400
H381        H  0.29842316  0.35972087  0.05469833     0.14400
H382        H  0.37438111  0.35627157  0.06081288     0.14400
H383        H  0.16618102  0.41553341  0.14030206     0.12700
H384        H  0.17346058  0.39358095  0.10259063     0.12700
H385        H  0.44767289  0.35534951  0.16615604     0.12700
H386        H  0.45575996  0.33158622  0.12829819     0.12700
H387        H  0.31116389  0.38792121  0.14988511     0.25900
H388        H  0.31752126  0.37231379  0.11759018     0.25900
C389        C  0.16253526  0.02766780  0.82730537    -0.02100
C390        C  0.15399094  0.05179066  0.80989808     0.07600
C391        C  0.17519487  0.08912929  0.80716789    -0.02200
C392        C  0.20425390  0.10105209  0.82119838    -0.02200
C393        C  0.21460349  0.07489672  0.83727719     0.07700
C394        C  0.19474552  0.03736269  0.83956693    -0.02400
Br395      Br  0.21101242  0.99988640  0.86036414    -0.01000
Br396      Br  0.12607140  0.98653573  0.83774884    -0.01000
Br397      Br  0.22903079  0.15410353  0.81900264    -0.01000
Br398      Br  0.16401116  0.12559118  0.78501115    -0.01000
C399        C  0.46947027  0.03052950  0.83761417    -0.02100
C400        C  0.48722184  0.05432856  0.82170444     0.07600
C401        C  0.47350663  0.09407111  0.81804942    -0.02200
C402        C  0.44069667  0.10843642  0.82897955    -0.02200
C403        C  0.42176437  0.08361890  0.84382374     0.07700
C404        C  0.43669220  0.04509148  0.84839641    -0.02400
Br405      Br  0.41189085  0.01222497  0.86974561    -0.01000
Br406      Br  0.48890506  0.97780572  0.84521459    -0.01000
Br407      Br  0.42209791  0.16254288  0.82414134    -0.01000
Br408      Br  0.00138570  0.13053462  0.79935185    -0.01000
C409        C  0.20438565  0.41715127  0.81796109    -0.02100
C410        C  0.19967897  0.38820287  0.83385076     0.07600
C411        C  0.16447227  0.36480104  0.83546300    -0.02200
C412        C  0.13201197  0.37515459  0.82376029    -0.02200
C413        C  0.13654145  0.40461705  0.80828608     0.07700
C414        C  0.17392301  0.42275103  0.80425193    -0.02400
Br415      Br  0.18382334  0.45615705  0.78028802    -0.01000
Br416      Br  0.25073943  0.45190826  0.81550946    -0.01000
Br417      Br  0.08183738  0.34864637  0.82882554    -0.01000
Br418      Br  0.16084002  0.31818432  0.85333963    -0.01000
C419        C  0.42719881  0.44313078  0.80507024    -0.02100
C420        C  0.45894506  0.41670142  0.80133668     0.07600
C421        C  0.45800141  0.37802348  0.81123437    -0.02200
C422        C  0.43005493  0.36925178  0.82688367    -0.02200
C423        C  0.40121957  0.39761823  0.83193391     0.07700
C424        C  0.39893093  0.43374794  0.82041082    -0.02400
Br425      Br  0.35735534  0.47117813  0.82608209    -0.01000
Br426      Br  0.41983804  0.49102008  0.78837101    -0.01000
Br427      Br  0.43094403  0.31811646  0.84152462    -0.01000
Br428      Br  0.99228218  0.33499241  0.80304084    -0.01000
C429        C  0.23341273  0.20770799  0.06563064    -0.02100
C430        C  0.22719913  0.17416782  0.07883456     0.07600
C431        C  0.19286614  0.14974453  0.07704250    -0.02200
C432        C  0.16273487  0.16201298  0.06410083    -0.02200
C433        C  0.16802155  0.19703383  0.05182643     0.07700
C434        C  0.20521147  0.21697812  0.05110627    -0.02400
Br435      Br  0.21948536  0.25531761  0.02992791    -0.01000
Br436      Br  0.27909316  0.24298744  0.06823907    -0.01000
Br437      Br  0.11480899  0.13002639  0.06242357    -0.01000
Br438      Br  0.18695307  0.09984754  0.09249556    -0.01000
C439        C  0.46598177  0.13059904  0.05065564    -0.02100
C440        C  0.49227413  0.16286146  0.05482865     0.07600
C441        C  0.49193983  0.17827976  0.07466968    -0.02200
C442        C  0.45954256  0.17068707  0.08779364    -0.02200
C443        C  0.43126346  0.14031519  0.08316496     0.07700
C444        C  0.43780934  0.11709402  0.06554333    -0.02400
Br445      Br  0.40957877  0.06645081  0.06219883    -0.01000
Br446      Br  0.46947362  0.10458286  0.02483650    -0.01000
Br447      Br  0.45373606  0.20442993  0.11141272    -0.01000
Br448      Br  0.03692781  0.20670857  0.08501545    -0.01000
C449        C  0.16534565  0.31969402  0.06879397    -0.02100
C450        C  0.16377181  0.33468692  0.04857775     0.07600
C451        C  0.19150881  0.36575238  0.04275987    -0.02200
C452        C  0.21917773  0.38104390  0.05672456    -0.02200
C453        C  0.22429213  0.36103137  0.07550693     0.07700
C454        C  0.19789022  0.32897734  0.08095974    -0.02400
Br455      Br  0.20588525  0.29788493  0.10554331    -0.01000
Br456      Br  0.12164137  0.29098774  0.08158998    -0.01000
Br457      Br  0.24852331  0.43054453  0.05050168    -0.01000
Br458      Br  0.19129315  0.38933639  0.01608317    -0.01000
C459        C  0.48888332  0.34692413  0.07204495    -0.02100
C460        C  0.48117910  0.30891536  0.06325180     0.07600
C461        C  0.44546442  0.28780954  0.06852773    -0.02200
C462        C  0.42046540  0.30238544  0.08368687    -0.02200
C463        C  0.42624201  0.34172988  0.09082116     0.07700
C464        C  0.46077431  0.36398950  0.08528559    -0.02400
Br465      Br  0.46889722  0.41798679  0.09540635    -0.01000
Br466      Br  0.53669997  0.37660505  0.06489706    -0.01000
Br467      Br  0.37640787  0.26932972  0.09404427    -0.01000
Br468      Br  0.42370407  0.24464271  0.05290449    -0.01000
C469        C  0.12822008  0.32457181  0.93633203    -0.02100
C470        C  0.11987555  0.33937617  0.95573984     0.07600
C471        C  0.14272368  0.37260642  0.96239718    -0.02200
C472        C  0.17847141  0.38366977  0.95206476    -0.02200
C473        C  0.19094429  0.36165126  0.93494907     0.07700
C474        C  0.16525225  0.33180799  0.92724517    -0.02400
Br475      Br  0.18103035  0.29941205  0.90465939    -0.01000
Br476      Br  0.08586484  0.30370713  0.92031829    -0.01000
Br477      Br  0.20995948  0.42881223  0.96103463    -0.01000
Br478      Br  0.12001637  0.40785528  0.98221040    -0.01000
C479        C  0.41518935  0.30726361  0.92859467    -0.02100
C480        C  0.40007236  0.34538081  0.93341099     0.07600
C481        C  0.41598179  0.36740960  0.94945474    -0.02200
C482        C  0.44691382  0.35136163  0.96088853    -0.02200
C483        C  0.46171867  0.31212963  0.95666169     0.07700
C484        C  0.44566428  0.29051348  0.94001964    -0.02400
Br485      Br  0.46302034  0.23712586  0.93234804    -0.01000
Br486      Br  0.39297289  0.27751769  0.90629367    -0.01000
Br487      Br  0.46923673  0.38513383  0.98164016    -0.01000
Br488      Br  0.39511615  0.42004412  0.95550081    -0.01000
C489        C  0.18744988  0.16465278  0.97143943    -0.02100
C490        C  0.15820699  0.19092870  0.96475839     0.07600
C491        C  0.15000069  0.19259665  0.94390782    -0.02200
C492        C  0.17683412  0.17745831  0.92962420    -0.02200
C493        C  0.20721291  0.15207526  0.93614130     0.07700
C494        C  0.20996470  0.14313865  0.95713797    -0.02400
Br495      Br  0.24211191  0.09927404  0.96616399    -0.01000
Br496      Br  0.19431964  0.15575038  0.00005362    -0.01000
Br497      Br  0.17199385  0.19378468  0.90157293    -0.01000
Br498      Br  0.09878303  0.20727325  0.93493692    -0.01000
C499        C  0.44453784  0.11485137  0.94596670    -0.02100
C500        C  0.40503237  0.12733356  0.94658013     0.07600
C501        C  0.39122852  0.13901361  0.96597158    -0.02200
C502        C  0.41752322  0.15696668  0.97955121    -0.02200
C503        C  0.45827499  0.15821985  0.97478672     0.07700
C504        C  0.47195414  0.13304204  0.95895032    -0.02400
Br505      Br  0.02714403  0.12423024  0.95361317    -0.01000
Br506      Br  0.45870956  0.06643329  0.93157975    -0.01000
Br507      Br  0.39729032  0.17791342  0.00482194    -0.01000
Br508      Br  0.34101981  0.11940890  0.97643633    -0.01000
C509        C  0.40719290  0.40549618  0.20774579    -0.02100
C510        C  0.41084773  0.41742149  0.18721398     0.07600
C511        C  0.44444768  0.44060228  0.18093649    -0.02200
C512        C  0.47432610  0.45026484  0.19476522    -0.02200
C513        C  0.46817983  0.44368802  0.21596908     0.07700
C514        C  0.43342173  0.42127474  0.22222145    -0.02400
Br515      Br  0.41777819  0.41404037  0.25035126    -0.01000
Br516      Br  0.36627350  0.36685293  0.21602864    -0.01000
Br517      Br  0.02286970  0.47269815  0.18357734    -0.01000
Br518      Br  0.44863715  0.46215330  0.15347989    -0.01000
C519        C  0.15943690  0.42150230  0.20056487    -0.02100
C520        C  0.14157703  0.45948061  0.19721370     0.07600
C521        C  0.15234710  0.48178163  0.17952601    -0.02200
C522        C  0.18700422  0.47288839  0.16884064    -0.02200
C523        C  0.20639584  0.43664269  0.17307061     0.07700
C524        C  0.19094322  0.40961001  0.18799735    -0.02400
Br525      Br  0.21273204  0.35621374  0.19085413    -0.01000
Br526      Br  0.13936897  0.38404212  0.22115747    -0.01000
Br527      Br  0.20791120  0.51024942  0.14837999    -0.01000
Br528      Br  0.11623709  0.01759269  0.16708642    -0.01000
C529        C  0.43316227  0.05772674  0.21122451    -0.02100
C530        C  0.46626420  0.08232919  0.21509816     0.07600
C531        C  0.46805966  0.12187833  0.20675587    -0.02200
C532        C  0.43835966  0.13480296  0.19351950    -0.02200
C533        C  0.40959709  0.10657887  0.18695194     0.07700
C534        C  0.40889781  0.06723304  0.19516735    -0.02400
Br535      Br  0.37784339  0.02504788  0.18318068    -0.01000
Br536      Br  0.41305015  0.01952932  0.23098325    -0.01000
Br537      Br  0.43847119  0.18981016  0.18334688    -0.01000
Br538      Br  0.00952189  0.15868224  0.21470320    -0.01000
C539        C  0.16892818  0.12491774  0.17664368    -0.02100
C540        C  0.20566579  0.14265759  0.18204614     0.07600
C541        C  0.20989061  0.15389895  0.20251012    -0.02200
C542        C  0.18477214  0.13628956  0.21768458    -0.02200
C543        C  0.15002176  0.11505279  0.21241677     0.07700
C544        C  0.13994958  0.11571841  0.19180230    -0.02400
Br545      Br  0.08603026  0.60744893  0.18438490    -0.01000
Br546      Br  0.15806424  0.60900329  0.14925771    -0.01000
Br547      Br  0.19913538  0.14106274  0.24538951    -0.01000
Br548      Br  0.25107228  0.19188352  0.20981077    -0.01000
C549        C  0.11494905  0.09970074  0.67914265    -0.02100
C550        C  0.14741003  0.12683984  0.68022817     0.07600
C551        C  0.17444072  0.12143512  0.69613991    -0.02200
C552        C  0.16496445  0.09407504  0.71234370    -0.02200
C553        C  0.13259620  0.06716198  0.71074949     0.07700
C554        C  0.11243271  0.06635278  0.69231564    -0.02400
Br555      Br  0.08807568  0.01750486  0.68259096    -0.01000
Br556      Br  0.07261298  0.10744640  0.66034137    -0.01000
Br557      Br  0.19831289  0.08976644  0.73539295    -0.01000
Br558      Br  0.22411785  0.15064371  0.69557396    -0.01000
C559        C  0.15389702  0.36979960  0.68301427    -0.02100
C560        C  0.12888201  0.33808447  0.67645556     0.07600
C561        C  0.08979980  0.33547387  0.68373746    -0.02200
C562        C  0.07690790  0.36183498  0.69876297    -0.02200
C563        C  0.10011260  0.39593868  0.70382189     0.07700
C564        C  0.13901240  0.39958664  0.69609650    -0.02400
Br565      Br  0.17239846  0.44401457  0.70441484    -0.01000
Br566      Br  0.20838196  0.37204178  0.67428467    -0.01000
Br567      Br  0.03170118  0.34547632  0.71496961    -0.01000
Br568      Br  0.05347384  0.29613777  0.67291079    -0.01000
C569        C  0.01099454  0.12676579  0.70751449    -0.02100
C570        C  0.99004414  0.09233488  0.71504581     0.07600
C571        C  0.44950237  0.08910265  0.71113636    -0.02200
C572        C  0.43068765  0.11924472  0.69938070    -0.02200
C573        C  0.45310454  0.15108606  0.68983461     0.07700
C574        C  0.99358916  0.15368446  0.69376125    -0.02400
Br575      Br  0.02627145  0.19403177  0.67984188    -0.01000
Br576      Br  0.06198806  0.14023627  0.71790290    -0.01000
Br577      Br  0.37432819  0.11714544  0.69655640    -0.01000
Br578      Br  0.41965561  0.04369190  0.72242758    -0.01000
C579        C  0.41579995  0.36666264  0.71312556    -0.02100
C580        C  0.43438667  0.36387565  0.69377698     0.07600
C581        C  0.46327423  0.39354943  0.68820015    -0.02200
C582        C  0.97027604  0.42623586  0.70094190    -0.02200
C583        C  0.95864613  0.42443085  0.72153842     0.07700
C584        C  0.43039792  0.39466648  0.72740700    -0.02400
Br585      Br  0.41212335  0.39212715  0.75513115    -0.01000
Br586      Br  0.37141254  0.33180431  0.72030563    -0.01000
Br587      Br  0.99181593  0.47482104  0.68880702    -0.01000
Br588      Br  0.49635185  0.38846012  0.66414120    -0.01000
C589        C  0.39148759  0.10066757  0.56735783    -0.02100
C590        C  0.35265273  0.10363622  0.56060766     0.07600
C591        C  0.32829860  0.13380448  0.56842001    -0.02200
C592        C  0.34081981  0.15798412  0.58442977    -0.02200
C593        C  0.38048610  0.15721565  0.59039059     0.07700
C594        C  0.40620481  0.12928949  0.58116050    -0.02400
Br595      Br  0.46172797  0.13147871  0.58648569    -0.01000
Br596      Br  0.42401805  0.05733664  0.55785574    -0.01000
Br597      Br  0.30349555  0.19282072  0.59768821    -0.01000
Br598      Br  0.28033973  0.14630162  0.55504998    -0.01000
C599        C  0.36197510  0.39700371  0.59285594    -0.02100
C600        C  0.39382467  0.37034622  0.59057731     0.07600
C601        C  0.42039624  0.37702508  0.57397063    -0.02200
C602        C  0.41173535  0.40576492  0.55857708    -0.02200
C603        C  0.37889235  0.43082222  0.56064886     0.07700
C604        C  0.35821674  0.42996692  0.57939905    -0.02400
Br605      Br  0.32816366  0.47564102  0.58812977    -0.01000
Br606      Br  0.32113274  0.38766496  0.61328474    -0.01000
Br607      Br  0.44805207  0.41598261  0.53654349    -0.01000
Br608      Br  0.46862246  0.34722028  0.57239379    -0.01000
C609        C  0.20734012  0.09507145  0.58116330    -0.02100
C610        C  0.18144175  0.12651463  0.57596541     0.07600
C611        C  0.16653161  0.12742791  0.55610213    -0.02200
C612        C  0.18449893  0.10373573  0.54111858    -0.02200
C613        C  0.20730566  0.07032181  0.54687927     0.07700
C614        C  0.21323732  0.06342345  0.56768339    -0.02400
Br615      Br  0.23152370  0.01266842  0.57813195    -0.01000
Br616      Br  0.24066170  0.09759361  0.60460664    -0.01000
Br617      Br  0.18341784  0.12233366  0.51350658    -0.01000
Br618      Br  0.12408744  0.16256652  0.54890532    -0.01000
C619        C  0.25814791  0.36696878  0.56282755    -0.02100
C620        C  0.23754985  0.39854693  0.55351517     0.07600
C621        C  0.19622943  0.39924670  0.55535514    -0.02200
C622        C  0.17588771  0.36792645  0.56618265    -0.02200
C623        C  0.19715903  0.33914705  0.57737111     0.07700
C624        C  0.23861376  0.33979391  0.57618185    -0.02400
Br625      Br  0.26895526  0.30266653  0.59234639    -0.01000
Br626      Br  0.31100023  0.35551150  0.55434390    -0.01000
Br627      Br  0.11929782  0.36373487  0.56523809    -0.01000
Br628      Br  0.16773073  0.44274164  0.54299711    -0.01000
C629        C  0.20843885  0.10334408  0.30169714    -0.02100
C630        C  0.17359283  0.10982032  0.29082435     0.07600
C631        C  0.15201460  0.14544886  0.29470040    -0.02200
C632        C  0.15850665  0.16719066  0.31229893    -0.02200
C633        C  0.19181370  0.15965327  0.32391724     0.07700
C634        C  0.21798800  0.12902423  0.31799982    -0.02400
Br635      Br  0.26553819  0.12126343  0.33289001    -0.01000
Br636      Br  0.24349713  0.06069632  0.29418960    -0.01000
Br637      Br  0.11824604  0.20320427  0.32190293    -0.01000
Br638      Br  0.11274672  0.16527616  0.27619024    -0.01000
C639        C  0.14046936  0.38999791  0.29964699    -0.02100
C640        C  0.15359697  0.43025109  0.30345679     0.07600
C641        C  0.17879707  0.43627649  0.32006368    -0.02200
C642        C  0.19137554  0.40286791  0.33191514    -0.02200
C643        C  0.17360485  0.36394588  0.32989817     0.07700
C644        C  0.14783281  0.35812717  0.31356427    -0.02400
Br645      Br  0.11987135  0.30730317  0.31069866    -0.01000
Br646      Br  0.11121233  0.37736571  0.27568786    -0.01000
Br647      Br  0.23439096  0.41027537  0.35029850    -0.01000
Br648      Br  0.19577785  0.49006145  0.32726702    -0.01000
C649        C  0.23259628  0.11009481  0.42564893    -0.02100
C650        C  0.19817675  0.13228107  0.42922665     0.07600
C651        C  0.17269624  0.11916830  0.44543727    -0.02200
C652        C  0.18415881  0.08779282  0.45910218    -0.02200
C653        C  0.22091170  0.06917803  0.45669505     0.07700
C654        C  0.24150018  0.07688214  0.43820890    -0.02400
Br655      Br  0.27150855  0.03506028  0.42611103    -0.01000
Br656      Br  0.26903548  0.12496637  0.40378757    -0.01000
Br657      Br  0.14655153  0.06304952  0.47776580    -0.01000
Br658      Br  0.12187873  0.14326685  0.44853018    -0.01000
C659        C  0.24629183  0.34606621  0.43182052    -0.02100
C660        C  0.20487003  0.34589537  0.43102005     0.07600
C661        C  0.18338759  0.37436301  0.44228625    -0.02200
C662        C  0.20370202  0.40598353  0.45200940    -0.02200
C663        C  0.24511807  0.40566615  0.45256061     0.07700
C664        C  0.26548189  0.37289491  0.44452217    -0.02400
Br665      Br  0.31665352  0.35927744  0.45412001    -0.01000
Br666      Br  0.27753442  0.31050881  0.41530413    -0.01000
Br667      Br  0.17509231  0.44855849  0.46504757    -0.01000
Br668      Br  0.12688549  0.36920829  0.44490974    -0.01000
C669        C  0.48613162  0.12008314  0.33371152    -0.02100
C670        C  0.45867040  0.14802358  0.32655267     0.07600
C671        C  0.44333119  0.14324611  0.30697081    -0.02200
C672        C  0.45625207  0.11131027  0.29448161    -0.02200
C673        C  0.48392391  0.08337864  0.30164856     0.07700
C674        C  0.49792974  0.08760793  0.32156565    -0.02400
Br675      Br  0.03592576  0.05056677  0.33196001    -0.01000
Br676      Br  0.51086950  0.12882359  0.35947167    -0.01000
Br677      Br  0.43849004  0.10776991  0.26704687    -0.01000
Br678      Br  0.40645015  0.18196811  0.29691535    -0.01000
C679        C  0.50917797  0.38588259  0.29549587    -0.02100
C680        C  0.53405296  0.41689943  0.30315423     0.07600
C681        C  0.54650878  0.41346953  0.32354117    -0.02200
C682        C  0.53331488  0.38049271  0.33567872    -0.02200
C683        C  0.50230528  0.35548541  0.32906961     0.07700
C684        C  0.48987421  0.35861605  0.30893106    -0.02400
Br685      Br  0.44472630  0.32769942  0.29987392    -0.01000
Br686      Br  0.50331500  0.37665794  0.26690995    -0.01000
Br687      Br  0.55705140  0.36971509  0.36155396    -0.01000
Br688      Br  0.58121821  0.45264903  0.33576326    -0.01000
C689        C  0.39617890  0.09648603  0.44262020    -0.02100
C690        C  0.36036963  0.10246393  0.45306222     0.07600
C691        C  0.33915360  0.13826177  0.44962092    -0.02200
C692        C  0.35101501  0.16522670  0.43405214    -0.02200
C693        C  0.38694407  0.15946895  0.42367856     0.07700
C694        C  0.41026577  0.12582287  0.42847988    -0.02400
Br695      Br  0.46210995  0.12093938  0.41641643    -0.01000
Br696      Br  0.42655450  0.04906683  0.44835984    -0.01000
Br697      Br  0.31814980  0.21050744  0.42714703    -0.01000
Br698      Br  0.29644961  0.15373006  0.46725900    -0.01000
C699        C  0.38717821  0.39747574  0.42196430    -0.02100
C700        C  0.41704359  0.36964225  0.42626529     0.07600
C701        C  0.43761276  0.37438212  0.44457852    -0.02200
C702        C  0.42272733  0.40009122  0.45987045    -0.02200
C703        C  0.39216615  0.42714053  0.45569158     0.07700
C704        C  0.37916539  0.42913781  0.43543889    -0.02400
Br705      Br  0.35309432  0.47570063  0.42498144    -0.01000
Br706      Br  0.35402118  0.39063153  0.39870318    -0.01000
Br707      Br  0.44581052  0.39996177  0.48600167    -0.01000
Br708      Br  0.48646388  0.34673416  0.44854697    -0.01000
N709        N  0.41642077  0.76349831  0.40443315    -0.36900
N710        N  0.45213408  0.82042964  0.37742979    -0.57400
N711        N  0.45830435  0.75596189  0.34595362    -0.36800
N712        N  0.42392335  0.69920304  0.37351085    -0.57400
C713        C  0.42014237  0.79514066  0.41728942     0.26700
C714        C  0.41105772  0.72942715  0.41582933     0.26700
C715        C  0.48421026  0.78470177  0.33913736     0.26700
C716        C  0.46760439  0.72090999  0.33661418     0.26700
C717        C  0.44061381  0.84723605  0.39165334     0.35400
C718        C  0.46329713  0.84238219  0.36082704     0.35400
C719        C  0.40285046  0.67900373  0.38800833     0.35400
C720        C  0.42344593  0.67578156  0.35686001     0.35400
C721        C  0.41548457  0.78086890  0.43706219    -0.22100
C722        C  0.41138943  0.73948176  0.43617805    -0.22100
C723        C  0.51002317  0.76791102  0.32515695    -0.22100
C724        C  0.49944244  0.72764729  0.32351464    -0.22100
C725        C  0.44588778  0.88649248  0.38420732    -0.23200
C726        C  0.45901872  0.88340685  0.36454346    -0.23200
C727        C  0.38830527  0.64270308  0.38044534    -0.23200
C728        C  0.40156006  0.64060702  0.36068956    -0.23200
C729        C  0.42646492  0.83648522  0.41143338    -0.18500
C730        C  0.40086327  0.69035782  0.40855559    -0.18500
C731        C  0.44768829  0.68318958  0.33958139    -0.18500
C732        C  0.48235744  0.82649746  0.34346637    -0.18500
H733        H  0.41477514  0.79800250  0.45087264     0.14400
H734        H  0.40698150  0.71933917  0.44914200     0.14400
H735        H  0.53348468  0.78334644  0.31665531     0.14400
H736        H  0.51356795  0.70588252  0.31379555     0.14400
H737        H  0.44089579  0.91458690  0.39201882     0.12700
H738        H  0.46619941  0.90870910  0.35443937     0.12700
H739        H  0.37133467  0.61937811  0.38857408     0.12700
H740        H  0.39709341  0.61540990  0.35060272     0.12700
H741        H  0.41261635  0.76533793  0.38887872     0.25900
H742        H  0.43319703  0.76138760  0.35470907     0.25900
N743        N  0.18975932  0.75669500  0.34990755    -0.36900
N744        N  0.18001455  0.81065185  0.38144927    -0.57400
N745        N  0.17984571  0.74163376  0.41213845    -0.36800
N746        N  0.19280555  0.68743242  0.37928943    -0.57400
C747        C  0.19505138  0.79226443  0.33945284     0.26700
C748        C  0.20528238  0.72698630  0.33860959     0.26700
C749        C  0.18888015  0.77390859  0.42369362     0.26700
C750        C  0.19047146  0.70772016  0.42251594     0.26700
C751        C  0.17068237  0.83663265  0.36624375     0.35400
C752        C  0.17296810  0.82977468  0.39899584     0.35400
C753        C  0.18922276  0.66772704  0.36157629     0.35400
C754        C  0.18371300  0.66008877  0.39429188     0.35400
C755        C  0.21472103  0.78508519  0.32133159    -0.22100
C756        C  0.22104031  0.74385063  0.32075253    -0.22100
C757        C  0.20343799  0.76013341  0.44205714    -0.22100
C758        C  0.20443092  0.71847567  0.44128880    -0.22100
C759        C  0.15657362  0.87216992  0.37425858    -0.23200
C760        C  0.15953502  0.86848305  0.39489488    -0.23200
C761        C  0.17782362  0.62763560  0.36535333    -0.23200
C762        C  0.17470499  0.62274084  0.38607992    -0.23200
C763        C  0.17974142  0.83017573  0.34547000    -0.18500
C764        C  0.19808155  0.68491825  0.34213735    -0.18500
C765        C  0.18854898  0.66745236  0.41522890    -0.18500
C766        C  0.18537948  0.81556792  0.41810199    -0.18500
H767        H  0.22243873  0.80701811  0.30949501     0.14400
H768        H  0.23398426  0.72774156  0.30818110     0.14400
H769        H  0.21306264  0.77827777  0.45463514     0.14400
H770        H  0.21517662  0.69852053  0.45301314     0.14400
H771        H  0.14738872  0.89901422  0.36617785     0.12700
H772        H  0.15338526  0.89232506  0.40545370     0.12700
H773        H  0.17313188  0.60408166  0.35436109     0.12700
H774        H  0.16745507  0.59478333  0.39421762     0.12700
H775        H  0.17077503  0.75155934  0.36227417     0.25900
H776        H  0.16600125  0.74286866  0.39823065     0.25900
O777        O  0.35278003  0.92494719  0.48659409    -0.80400
O778        O  0.34697253  0.57523742  0.52749091    -0.80400
O779        O  0.31979952  0.54492326  0.46125405    -0.80400
O780        O  0.35012282  0.98747231  0.54459395    -0.80400
O781        O  0.35232163  0.57334628  0.48576603    -0.80500
O782        O  0.34566302  0.92958693  0.52884002    -0.80400
O783        O  0.30899633  0.55061263  0.55188563    -0.80400
O784        O  0.35632084  0.98168862  0.47047956    -0.80400
C785        C  0.36776684  0.94615788  0.47230905     1.09300
C786        C  0.33605378  0.57483069  0.54600900     1.09200
C787        C  0.34435661  0.57136754  0.46725591     1.09300
C788        C  0.35987581  0.95108901  0.54301409     1.09200
O789        O  0.25872504  0.93381066  0.52316061    -0.80400
O790        O  0.26748157  0.57586106  0.48296280    -0.80500
O791        O  0.28579779  0.96497715  0.45411589    -0.80400
O792        O  0.24221425  0.51522776  0.53317071    -0.80400
O793        O  0.26142381  0.57628768  0.52423332    -0.80400
O794        O  0.26747881  0.93357965  0.48289761    -0.80400
O795        O  0.28045481  0.95559211  0.55131401    -0.80400
O796        O  0.24547233  0.51470187  0.47836444    -0.80400
Co797      Co  0.30757445  0.93871201  0.50552333     1.51500
Co798      Co  0.30766089  0.56929332  0.50515321     1.51700
Co799      Co  0.30089930  0.49517816  0.47690574     1.51600
Co800      Co  0.29827451  0.50307507  0.53500030     1.51500
O801        O  0.31238705  0.50522086  0.50551289    -1.42300
C802        C  0.25978702  0.93054213  0.54216793     1.09200
C803        C  0.24319428  0.55223047  0.47450039     1.09300
C804        C  0.26748406  0.93631222  0.46348518     1.09300
C805        C  0.23621089  0.55260112  0.53277725     1.09200
N806        N  0.40376776  0.76186731  0.61079944    -0.36900
N807        N  0.41415471  0.69625567  0.64109931    -0.57400
N808        N  0.42148498  0.75682669  0.67283721    -0.36800
N809        N  0.41048057  0.82202508  0.64244140    -0.57400
C810        C  0.39546244  0.72930826  0.59919541     0.26700
C811        C  0.39756125  0.79584835  0.59949217     0.26700
C812        C  0.43414656  0.72359604  0.68311451     0.26700
C813        C  0.42990249  0.78994998  0.68412888     0.26700
C814        C  0.40513329  0.67304380  0.62500625     0.35400
C815        C  0.42290124  0.67071984  0.65657815     0.35400
C816        C  0.40618715  0.84796328  0.62654167     0.35400
C817        C  0.41114692  0.84476115  0.65935899     0.35400
C818        C  0.38558794  0.74295600  0.57996575    -0.22100
C819        C  0.38648359  0.78455667  0.58023810    -0.22100
C820        C  0.94809758  0.73571582  0.70182678    -0.22100
C821        C  0.94628291  0.77719815  0.70225087    -0.22100
C822        C  0.40759808  0.63240331  0.63046469    -0.23200
C823        C  0.42000110  0.63098856  0.65011886    -0.23200
C824        C  0.40509339  0.88739537  0.63349360    -0.23200
C825        C  0.40545337  0.88510550  0.65414819    -0.23200
C826        C  0.39505078  0.68755460  0.60536775    -0.18500
C827        C  0.40039526  0.83687809  0.60600425    -0.18500
C828        C  0.42330041  0.83142013  0.67885657    -0.18500
C829        C  0.43473966  0.68258611  0.67625035    -0.18500
H830        H  0.37777782  0.72492352  0.56702778     0.14400
H831        H  0.37928627  0.80414307  0.56763269     0.14400
H832        H  0.95982308  0.71688857  0.71373607     0.14400
H833        H  0.95638204  0.79578057  0.71453100     0.14400
H834        H  0.40195256  0.60624107  0.62118656     0.12700
H835        H  0.42582371  0.60358543  0.65863887     0.12700
H836        H  0.40308921  0.91523829  0.62476835     0.12700
H837        H  0.40444263  0.91092063  0.66405998     0.12700
H838        H  0.41417399  0.76080616  0.62537970     0.25900
H839        H  0.40630612  0.75693091  0.65938487     0.25900
N840        N  0.15359767  0.73352833  0.65758290    -0.36900
N841        N  0.16198004  0.67093234  0.62719553    -0.57400
N842        N  0.16682438  0.73323546  0.59526993    -0.36800
N843        N  0.15831058  0.79588303  0.62585486    -0.57400
C844        C  0.15203534  0.70050504  0.67006841     0.26700
C845        C  0.14752451  0.76674619  0.66900302     0.26700
C846        C  0.17898793  0.70016712  0.58508781     0.26700
C847        C  0.18016230  0.76635932  0.58461320     0.26700
C848        C  0.15760759  0.64630207  0.64367142     0.35400
C849        C  0.15962638  0.64704228  0.61076856     0.35400
C850        C  0.14762241  0.81988359  0.64131082     0.35400
C851        C  0.16194892  0.82003268  0.60926004     0.35400
C852        C  0.14558312  0.71322384  0.68980833    -0.22100
C853        C  0.14323655  0.75477499  0.68915936    -0.22100
C854        C  0.19904177  0.71263753  0.56751625    -0.22100
C855        C  0.19910612  0.75407430  0.56701280    -0.22100
C856        C  0.15414307  0.60634835  0.63746109    -0.23200
C857        C  0.15213219  0.60723955  0.61684188    -0.23200
C858        C  0.14367288  0.85945108  0.63437227    -0.23200
C859        C  0.15380955  0.85974093  0.61423235    -0.23200
C860        C  0.15386063  0.65910214  0.66415564    -0.18500
C861        C  0.14298005  0.80729461  0.66178763    -0.18500
C862        C  0.17692833  0.80754907  0.59034674    -0.18500
C863        C  0.17165612  0.65899341  0.59087372    -0.18500
H864        H  0.14184812  0.69461985  0.70335344     0.14400
H865        H  0.13767101  0.77384841  0.70206928     0.14400
H866        H  0.21195009  0.69406765  0.55593858     0.14400
H867        H  0.21239499  0.77294971  0.55510636     0.14400
H868        H  0.15199502  0.57901634  0.64666985     0.12700
H869        H  0.14890936  0.58084177  0.60742729     0.12700
H870        H  0.13571942  0.88580936  0.64300077     0.12700
H871        H  0.15546941  0.88645865  0.60456552     0.12700
H872        H  0.15720243  0.73334689  0.64208220     0.25900
H873        H  0.14827696  0.73307224  0.60795966     0.25900
O874        O  0.05049871  0.98746373  0.29875776    -0.80400
O875        O  0.09922328  0.01099917  0.21087692    -0.80400
O876        O  0.48058929  0.97403233  0.24852671    -0.80400
O877        O  0.14092420  0.96080302  0.27122005    -0.80400
O878        O  0.02932160  0.97886759  0.22626916    -0.80500
O879        O  0.12908823  0.99850308  0.29755019    -0.80400
O880        O  0.12405550  0.96771394  0.23178108    -0.80400
O881        O  0.54317588  0.95180862  0.27144254    -0.80400
C882        C  0.54423971  0.95345410  0.29050345     1.09300
C883        C  0.11896263  0.97933409  0.21383852     1.09200
C884        C  0.49399879  0.96563827  0.23109792     1.09300
C885        C  0.14054436  0.96504150  0.29015260     1.09200
O886        O  0.11648621  0.57959153  0.27938733    -0.80400
O887        O  0.02985579  0.55475241  0.21085916    -0.80500
O888        O  0.49741478  0.52399166  0.28081709    -0.80400
O889        O  0.15040477  0.55313473  0.23143073    -0.80400
O890        O  0.09383300  0.58547423  0.23117701    -0.80400
O891        O  0.04130761  0.57158261  0.28282756    -0.80400
O892        O  0.16852503  0.54557387  0.27212836    -0.80400
O893        O  0.50383531  0.55167905  0.24185415    -0.80400
Co894      Co  0.08415877  0.03434646  0.28801864     1.51500
Co895      Co  0.06173678  0.03376035  0.23157338     1.51700
Co896      Co  0.52757670  0.00051349  0.25652315     1.51600
Co897      Co  0.14227977  0.00692661  0.25192378     1.51500
O898        O  0.08439653  0.01893802  0.25866896    -1.42300
C899        C  0.15290735  0.57709321  0.27950830     1.09200
C900        C  0.50183074  0.56280059  0.22300585     1.09300
C901        C  0.50729291  0.55879521  0.28725008     1.09300
C902        C  0.13043096  0.58409336  0.22650053     1.09200
O903        O  0.47075647  0.72046973  0.99160225    -0.80400
O904        O  0.13279185  0.72752092  0.02410956    -0.80400
O905        O  0.09958756  0.69709286  0.98381811    -0.80400
O906        O  0.04624824  0.68855892  0.03351383    -0.80400
O907        O  0.14030542  0.74839880  0.98503803    -0.80500
O908        O  0.48876689  0.71752306  0.03145805    -0.80400
O909        O  0.10409154  0.72431987  0.05444704    -0.80400
O910        O  0.02138328  0.68327831  0.98514141    -0.80400
C911        C  0.48474590  0.68773655  0.98508299     1.09300
C912        C  0.13333907  0.71686936  0.04304908     1.09200
C913        C  0.13260590  0.71248875  0.97929876     1.09300
C914        C  0.50994222  0.68916054  0.03820065     1.09200
O915        O  0.50622081  0.80481993  0.02957046    -0.80400
O916        O  0.09383230  0.82055952  0.98892582    -0.80500
O917        O  0.00914436  0.76133724  0.96496453    -0.80400
O918        O  0.10329954  0.79905632  0.03769271    -0.80400
O919        O  0.15291070  0.80545688  0.01576861    -0.80400
O920        O  0.49322145  0.80384726  0.98870054    -0.80400
O921        O  0.03232316  0.76490178  0.05180435    -0.80400
O922        O  0.08706891  0.77696420  0.96429964    -0.80400
Co923      Co  0.49390852  0.76200103  0.01015934     1.51500
Co924      Co  0.10801696  0.77539915  0.00727798     1.51700
Co925      Co  0.05458084  0.73016270  0.97639651     1.51600
Co926      Co  0.07383370  0.74234487  0.03269591     1.51500
O927        O  0.05254657  0.75271632  0.00468673    -1.42300
C928        C  0.50871094  0.79303760  0.04765830     1.09200
C929        C  0.09668451  0.81242934  0.97023485     1.09300
C930        C  0.99060086  0.79252417  0.97060518     1.09300
C931        C  0.13858507  0.81309556  0.03318255     1.09200
N932        N  0.30081102  0.88560189  0.85496207    -0.36900
N933        N  0.35896278  0.87930487  0.88488020    -0.57400
N934        N  0.29811827  0.87571197  0.91734165    -0.36800
N935        N  0.24057499  0.88313268  0.88621756    -0.57400
C936        C  0.33289148  0.87812523  0.84335940     0.26700
C937        C  0.26893321  0.87506730  0.84422299     0.26700
C938        C  0.32880075  0.85798857  0.92648441     0.26700
C939        C  0.26471515  0.86364809  0.92750091     0.26700
C940        C  0.38267568  0.89111973  0.86908836     0.35400
C941        C  0.38118539  0.88006193  0.90157436     0.35400
C942        C  0.21904076  0.89335348  0.87003600     0.35400
C943        C  0.21841719  0.89110584  0.90282866     0.35400
C944        C  0.32150519  0.86238770  0.82498152    -0.22100
C945        C  0.28092525  0.85981330  0.82564674    -0.22100
C946        C  0.31483909  0.83525338  0.94306947    -0.22100
C947        C  0.27432622  0.83884928  0.94370616    -0.22100
C948        C  0.42014131  0.89999916  0.87582058    -0.23200
C949        C  0.41933976  0.89249210  0.89640184    -0.23200
C950        C  0.18313556  0.90848782  0.87641314    -0.23200
C951        C  0.18280472  0.90718554  0.89719573    -0.23200
C952        C  0.37168215  0.88884030  0.84857070    -0.18500
C953        C  0.22995781  0.88484871  0.84977487    -0.18500
C954        C  0.22610107  0.87483503  0.92219944    -0.18500
C955        C  0.36901250  0.86314939  0.92052395    -0.18500
H956        H  0.34041434  0.85440848  0.81232939     0.14400
H957        H  0.26232181  0.85003678  0.81344580     0.14400
H958        H  0.33202398  0.81772644  0.95355548     0.14400
H959        H  0.25425942  0.82451354  0.95467288     0.14400
H960        H  0.44583222  0.90858876  0.86673137     0.12700
H961        H  0.44427861  0.89449043  0.90631632     0.12700
H962        H  0.15910949  0.91818289  0.86711335     0.12700
H963        H  0.15822658  0.91470888  0.90702402     0.12700
H964        H  0.30065758  0.90296002  0.86802044     0.25900
H965        H  0.30015651  0.89710092  0.90558315     0.25900
N966        N  0.30885655  0.62511424  0.92003587    -0.36900
N967        N  0.25171421  0.61079819  0.88798226    -0.57400
N968        N  0.31526951  0.60052147  0.85910726    -0.36800
N969        N  0.37262027  0.61228988  0.89187962    -0.57400
C970        C  0.27754739  0.64767010  0.92526845     0.26700
C971        C  0.34043776  0.64192513  0.92909163     0.26700
C972        C  0.28485194  0.58806117  0.84747344     0.26700
C973        C  0.34918759  0.59193657  0.84908520     0.26700
C974        C  0.22756422  0.61468138  0.90432085     0.35400
C975        C  0.22964645  0.59643296  0.87277883     0.35400
C976        C  0.39448853  0.62292235  0.90799241     0.35400
C977        C  0.39709580  0.61367940  0.87551479     0.35400
C978        C  0.28970158  0.68013411  0.93689342    -0.22100
C979        C  0.32969958  0.67697774  0.93893727    -0.22100
C980        C  0.29989606  0.57282134  0.82949329    -0.22100
C981        C  0.34032825  0.57530744  0.83050711    -0.22100
C982        C  0.19007963  0.60081741  0.89986365    -0.23200
C983        C  0.19103959  0.59060317  0.87971805    -0.23200
C984        C  0.43232358  0.63380297  0.90147685    -0.23200
C985        C  0.43427906  0.62675790  0.88107511    -0.23200
C986        C  0.23794431  0.63698588  0.92163675    -0.18500
C987        C  0.37893955  0.62686664  0.92795749    -0.18500
C988        C  0.38799315  0.59868271  0.85615605    -0.18500
C989        C  0.24396798  0.58798628  0.85287386    -0.18500
H990        H  0.27152515  0.70344054  0.94335694     0.14400
H991        H  0.34865986  0.69780438  0.94692669     0.14400
H992        H  0.28349952  0.56017331  0.81710547     0.14400
H993        H  0.36088826  0.56556465  0.81891814     0.14400
H994        H  0.16416466  0.60081540  0.90965493     0.11100
H995        H  0.16597567  0.58015215  0.87125044     0.12700
H996        H  0.45595508  0.64662318  0.91020957     0.12700
H997        H  0.46009842  0.63109721  0.87137178     0.12700
H998        H  0.30815669  0.59738965  0.91258633     0.25900
H999        H  0.31352739  0.61542223  0.87279281     0.25900
O1000       O  0.09794330  0.91806662  0.73735785    -0.80400
O1001       O  0.10290070  0.56199236  0.78477034    -0.80400
O1002       O  0.10255145  0.51050034  0.72709703    -0.80400
O1003       O  0.07451367  0.93635192  0.80362268    -0.80400
O1004       O  0.09859895  0.56663077  0.74295946    -0.80500
O1005       O  0.10513521  0.91164278  0.77728997    -0.80400
O1006       O  0.11135669  0.50189935  0.79547917    -0.80400
O1007       O  0.06014518  0.95000322  0.71619894    -0.80400
C1008       C  0.08600264  0.92346252  0.71964918     1.09300
C1009       C  0.12183458  0.53816040  0.79579175     1.09200
C1010       C  0.11299332  0.54656232  0.72853025     1.09300
C1011       C  0.10308837  0.91693218  0.79602638     1.09200
O1012       O  0.02012037  0.90719588  0.78276700    -0.80400
O1013       O  0.01320572  0.55735999  0.74517188    -0.80500
O1014       O  0.99315280  0.97686647  0.73992896    -0.80400
O1015       O  0.04120398  0.51065988  0.81498073    -0.80400
O1016       O  0.01835995  0.54598619  0.78898471    -0.80400
O1017       O  0.01331559  0.91460198  0.74193324    -0.80400
O1018       O  0.00110687  0.96859984  0.78667903    -0.80400
O1019       O  0.02912721  0.53299432  0.71510049    -0.80400
Co1020     Co  0.05975772  0.91764185  0.76007010     1.51500
Co1021     Co  0.05943096  0.54837563  0.76506184     1.51700
Co1022     Co  0.04851367  0.99642426  0.73520758     1.51600
Co1023     Co  0.05632763  0.98773989  0.78996344     1.51500
O1024       O  0.06745403  0.98071019  0.76167197    -1.42300
C1025       C  0.99424168  0.93124771  0.78906325     1.09200
C1026       C  0.01186929  0.55952938  0.72557179     1.09300
C1027       C  0.98785269  0.93962649  0.73633811     1.09300
C1028       C  0.01805916  0.53715047  0.80825077     1.09200
N1029       N  0.32501004  0.64773875  0.10163829    -0.36900
N1030       N  0.37732465  0.62541501  0.13345638    -0.57400
N1031       N  0.31295012  0.63592611  0.16371289    -0.36800
N1032       N  0.25952968  0.65339227  0.13165806    -0.57400
C1033       C  0.35747934  0.64066695  0.09002592     0.26700
C1034       C  0.29418303  0.65213076  0.08919126     0.26700
C1035       C  0.34089671  0.61925836  0.17536662     0.26700
C1036       C  0.27750733  0.62930833  0.17329981     0.26700
C1037       C  0.40326776  0.62238536  0.11771184     0.35400
C1038       C  0.39757246  0.61769665  0.15045469     0.35400
C1039       C  0.24349659  0.67106244  0.11530785     0.35400
C1040       C  0.23709826  0.66353873  0.14791545     0.35400
C1041       C  0.34707433  0.64188163  0.06979438    -0.22100
C1042       C  0.30708969  0.64729546  0.06932533    -0.22100
C1043       C  0.32310417  0.60314567  0.19288744    -0.22100
C1044       C  0.28328809  0.60744305  0.19105408    -0.22100
C1045       C  0.43940650  0.61016269  0.12471542    -0.23200
C1046       C  0.43598738  0.60770128  0.14538457    -0.23200
C1047       C  0.21075322  0.69279111  0.12123186    -0.23200
C1048       C  0.20726753  0.68882552  0.14197253    -0.23200
C1049       C  0.39606129  0.63336278  0.09722739    -0.18500
C1050       C  0.25591958  0.66504443  0.09496910    -0.18500
C1051       C  0.24079757  0.64575213  0.16739007    -0.18500
C1052       C  0.38185853  0.61712866  0.17050820    -0.18500
H1053       H  0.36586527  0.63922228  0.05652980     0.14400
H1054       H  0.28996278  0.64972499  0.05572503     0.14400
H1055       H  0.33687648  0.58855093  0.20559855     0.14400
H1056       H  0.26140032  0.59658647  0.20203418     0.14400
H1057       H  0.46587868  0.60467360  0.11587880     0.12700
H1058       H  0.45919785  0.59905266  0.15548120     0.12700
H1059       H  0.19090176  0.70900145  0.11155382     0.12700
H1060       H  0.18417838  0.70112635  0.15144423     0.12700
H1061       H  0.32447071  0.65376815  0.11705199     0.25900
H1062       H  0.31870133  0.65449896  0.15105180     0.25900
N1063       N  0.31082769  0.90892263  0.16145093    -0.36900
N1064       N  0.25809589  0.90203162  0.12585389    -0.57400
N1065       N  0.32241540  0.87275104  0.10217509    -0.36800
N1066       N  0.37605227  0.88413270  0.13676149    -0.57400
C1067       C  0.27823911  0.92728094  0.16849688     0.26700
C1068       C  0.34083700  0.91853082  0.17395187     0.26700
C1069       C  0.29443962  0.87160684  0.08773005     0.26700
C1070       C  0.35777320  0.86694074  0.09304619     0.26700
C1071       C  0.23146410  0.91173049  0.14033990     0.35400
C1072       C  0.23731611  0.89221011  0.10924002     0.35400
C1073       C  0.39291729  0.88256665  0.15513541     0.35400
C1074       C  0.39956355  0.86347592  0.12407221     0.35400
C1075       C  0.28712871  0.94780813  0.18606787    -0.22100
C1076       C  0.32646555  0.94224286  0.18950107    -0.22100
C1077       C  0.31234835  0.86398645  0.06917941    -0.22100
C1078       C  0.35220684  0.86235311  0.07238691    -0.22100
C1079       C  0.19376536  0.90945665  0.13265126    -0.23200
C1080       C  0.19754221  0.89803408  0.11292341    -0.23200
C1081       C  0.42727730  0.86073950  0.15414398    -0.23200
C1082       C  0.43149706  0.84857721  0.13444771    -0.23200
C1083       C  0.24014497  0.92453963  0.16018537    -0.18500
C1084       C  0.38031071  0.90500710  0.17203480    -0.18500
C1085       C  0.39392558  0.85964898  0.10303123    -0.18500
C1086       C  0.25318238  0.87607247  0.09105387    -0.18500
H1087       H  0.26727456  0.96494487  0.19551368     0.14400
H1088       H  0.34236020  0.95385084  0.20228229     0.14400
H1089       H  0.29839159  0.85965337  0.05477314     0.14400
H1090       H  0.37433773  0.85615919  0.06089303     0.14400
H1091       H  0.16618888  0.91559733  0.14036982     0.12700
H1092       H  0.17344245  0.89360911  0.10266342     0.12700
H1093       H  0.44759393  0.85507754  0.16624641     0.12700
H1094       H  0.45564195  0.83124527  0.12839613     0.12700
H1095       H  0.31113552  0.88781107  0.14995908     0.25900
H1096       H  0.31745281  0.87207763  0.11768357     0.25900
C1097       C  0.16246689  0.52767882  0.82734327    -0.02100
C1098       C  0.15395244  0.55178792  0.80992623     0.07600
C1099       C  0.17517700  0.58911350  0.80719333    -0.02200
C1100       C  0.20422358  0.60103999  0.82123058    -0.02200
C1101       C  0.21454690  0.57489771  0.83732022     0.07700
C1102       C  0.19466158  0.53737784  0.83961670    -0.02400
Br1103     Br  0.21087703  0.49991742  0.86043314    -0.01000
Br1104     Br  0.12599411  0.48654033  0.83777247    -0.01000
Br1105     Br  0.22901495  0.65408394  0.81902993    -0.01000
Br1106     Br  0.16404895  0.62554588  0.78501643    -0.01000
C1107       C  0.46946563  0.53056426  0.83762305    -0.02100
C1108       C  0.48719730  0.55434935  0.82170142     0.07600
C1109       C  0.47345185  0.59407715  0.81803271    -0.02200
C1110       C  0.44063939  0.60843881  0.82896354    -0.02200
C1111       C  0.42172825  0.58363181  0.84381921     0.07700
C1112       C  0.43668150  0.54512054  0.84840285    -0.02400
Br1113     Br  0.41190727  0.51226717  0.86976567    -0.01000
Br1114     Br  0.48893320  0.47786550  0.84524624    -0.01000
Br1115     Br  0.42201193  0.66253032  0.82411305    -0.01000
Br1116     Br  0.00136955  0.63051630  0.79938197    -0.01000
C1117       C  0.20441309  0.91712763  0.81793622    -0.02100
C1118       C  0.19969940  0.88820488  0.83383794     0.07600
C1119       C  0.16448938  0.86481138  0.83545681    -0.02200
C1120       C  0.13202818  0.87516027  0.82375494    -0.02200
C1121       C  0.13655626  0.90461229  0.80827657     0.07700
C1122       C  0.17394201  0.92272826  0.80423147    -0.02400
Br1123     Br  0.18383361  0.95611254  0.78025883    -0.01000
Br1124     Br  0.25079230  0.95184152  0.81545591    -0.01000
Br1125     Br  0.08185576  0.84865323  0.82882488    -0.01000
Br1126     Br  0.16085827  0.81820029  0.85333525    -0.01000
C1127       C  0.42720220  0.94309885  0.80505521    -0.02100
C1128       C  0.45895711  0.91667560  0.80133141     0.07600
C1129       C  0.45801944  0.87800661  0.81123775    -0.02200
C1130       C  0.43006593  0.86923993  0.82688479    -0.02200
C1131       C  0.40122777  0.89760763  0.83192879     0.07700
C1132       C  0.39893441  0.93372612  0.82039709    -0.02400
Br1133     Br  0.35735438  0.97115704  0.82605826    -0.01000
Br1134     Br  0.41983548  0.99096866  0.78834276    -0.01000
Br1135     Br  0.43094434  0.81810886  0.84152989    -0.01000
Br1136     Br  0.99232124  0.83502725  0.80305737    -0.01000
C1137       C  0.23337492  0.70771326  0.06563114    -0.02100
C1138       C  0.22715883  0.67414456  0.07881615     0.07600
C1139       C  0.19282737  0.64972422  0.07700952    -0.02200
C1140       C  0.16270061  0.66202133  0.06407186    -0.02200
C1141       C  0.16799734  0.69706407  0.05181420     0.07700
C1142       C  0.20518606  0.71700610  0.05110639    -0.02400
Br1143     Br  0.21947272  0.75538221  0.02994687    -0.01000
Br1144     Br  0.27903025  0.74301334  0.06827131    -0.01000
Br1145     Br  0.11476673  0.63005254  0.06237951    -0.01000
Br1146     Br  0.18690448  0.59980371  0.09244251    -0.01000
C1147       C  0.46597858  0.63072059  0.05065266    -0.02100
C1148       C  0.49229599  0.66296033  0.05482750     0.07600
C1149       C  0.49195794  0.67838903  0.07466599    -0.02200
C1150       C  0.45954993  0.67082259  0.08778705    -0.02200
C1151       C  0.43125507  0.64046378  0.08315921     0.07700
C1152       C  0.43779279  0.61723668  0.06553824    -0.02400
Br1153     Br  0.40953324  0.56661042  0.06219055    -0.01000
Br1154     Br  0.46945433  0.60470388  0.02483315    -0.01000
Br1155     Br  0.45376972  0.70456412  0.11140787    -0.01000
Br1156     Br  0.03696827  0.70673827  0.08499579    -0.01000
C1157       C  0.16525229  0.81976277  0.06882605    -0.02100
C1158       C  0.16376550  0.83473159  0.04860228     0.07600
C1159       C  0.19157207  0.86574136  0.04279591    -0.02200
C1160       C  0.21920727  0.88101564  0.05678213    -0.02200
C1161       C  0.22424234  0.86100937  0.07557341     0.07700
C1162       C  0.19777605  0.82900241  0.08101436    -0.02400
Br1163     Br  0.20566198  0.79789821  0.10560541    -0.01000
Br1164     Br  0.12147323  0.79112548  0.08159393    -0.01000
Br1165     Br  0.24861175  0.93048799  0.05057380    -0.01000
Br1166     Br  0.19153518  0.88924968  0.01609900    -0.01000
C1167       C  0.48889994  0.84680806  0.07216944    -0.02100
C1168       C  0.48115885  0.80890235  0.06327782     0.07600
C1169       C  0.44540859  0.78780173  0.06848978    -0.02200
C1170       C  0.42040697  0.80226555  0.08367703    -0.02200
C1171       C  0.42620326  0.84154227  0.09089729     0.07700
C1172       C  0.46077563  0.86380169  0.08542743    -0.02400
Br1173     Br  0.46893395  0.91771040  0.09565497    -0.01000
Br1174     Br  0.53679433  0.87645505  0.06513727    -0.01000
Br1175     Br  0.37632240  0.76915433  0.09395512    -0.01000
Br1176     Br  0.42362322  0.74480936  0.05275875    -0.01000
C1177       C  0.12816509  0.82474362  0.93633999    -0.02100
C1178       C  0.11987832  0.83950852  0.95576076     0.07600
C1179       C  0.14278329  0.87268910  0.96242869    -0.02200
C1180       C  0.17852548  0.88373072  0.95208489    -0.02200
C1181       C  0.19093883  0.86173807  0.93494890     0.07700
C1182       C  0.16519176  0.83194670  0.92724131    -0.02400
Br1183     Br  0.18089522  0.79954512  0.90464626    -0.01000
Br1184     Br  0.08575629  0.80393359  0.92034387    -0.01000
Br1185     Br  0.21008871  0.92880406  0.96107070    -0.01000
Br1186     Br  0.12017383  0.90790358  0.98228755    -0.01000
C1187       C  0.41523935  0.80738055  0.92858837    -0.02100
C1188       C  0.40009218  0.84548083  0.93341468     0.07600
C1189       C  0.41600462  0.86751491  0.94945650    -0.02200
C1190       C  0.44694978  0.85147731  0.96088561    -0.02200
C1191       C  0.46175812  0.81224669  0.95666041     0.07700
C1192       C  0.44572109  0.79063781  0.94001173    -0.02400
Br1193     Br  0.46312136  0.73727504  0.93232332    -0.01000
Br1194     Br  0.39306897  0.77765264  0.90626942    -0.01000
Br1195     Br  0.46930346  0.88526654  0.98162130    -0.01000
Br1196     Br  0.39513756  0.92014914  0.95550080    -0.01000
C1197       C  0.18745418  0.66470593  0.97146912    -0.02100
C1198       C  0.15824916  0.69101745  0.96477627     0.07600
C1199       C  0.15009173  0.69271631  0.94392096    -0.02200
C1200       C  0.17692994  0.67754686  0.92964953    -0.02200
C1201       C  0.20726091  0.65211656  0.93617775     0.07700
C1202       C  0.20997911  0.64317865  0.95717607    -0.02400
Br1203     Br  0.24211071  0.59931164  0.96621641    -0.01000
Br1204     Br  0.19426316  0.65578124  0.00008637    -0.01000
Br1205     Br  0.17217193  0.69389760  0.90159696    -0.01000
Br1206     Br  0.09892439  0.70749524  0.93492077    -0.01000
C1207       C  0.44462168  0.61492956  0.94595455    -0.02100
C1208       C  0.40509909  0.62735302  0.94657803     0.07600
C1209       C  0.39129568  0.63901503  0.96597215    -0.02200
C1210       C  0.41757685  0.65701316  0.97954427    -0.02200
C1211       C  0.45832688  0.65831339  0.97477464     0.07700
C1212       C  0.47202520  0.63315919  0.95893214    -0.02400
Br1213     Br  0.02716218  0.62440105  0.95358867    -0.01000
Br1214     Br  0.45884407  0.56652617  0.93156856    -0.01000
Br1215     Br  0.39732258  0.67796959  0.00480755    -0.01000
Br1216     Br  0.34110906  0.61935346  0.97644331    -0.01000
C1217       C  0.40722034  0.90535331  0.20780882    -0.02100
C1218       C  0.41086492  0.91725792  0.18727388     0.07600
C1219       C  0.44447762  0.94040514  0.18098274    -0.02200
C1220       C  0.47435815  0.95009509  0.19480655    -0.02200
C1221       C  0.46822528  0.94353982  0.21601307     0.07700
C1222       C  0.43347938  0.92111605  0.22227551    -0.02400
Br1223     Br  0.41790415  0.91383778  0.25041178    -0.01000
Br1224     Br  0.36626797  0.86675911  0.21610654    -0.01000
Br1225     Br  0.02289559  0.97277741  0.18357854    -0.01000
Br1226     Br  0.44868640  0.96186803  0.15350970    -0.01000
C1227       C  0.15939351  0.92150422  0.20060354    -0.02100
C1228       C  0.14155932  0.95949309  0.19724785     0.07600
C1229       C  0.15238223  0.98180654  0.17957294    -0.02200
C1230       C  0.18706181  0.97291057  0.16890928    -0.02200
C1231       C  0.20642114  0.93664653  0.17313989     0.07700
C1232       C  0.19092239  0.90960748  0.18805239    -0.02400
Br1233     Br  0.21267408  0.85619543  0.19091039    -0.01000
Br1234     Br  0.13925394  0.88403811  0.22117659    -0.01000
Br1235     Br  0.20803471  0.01028562  0.14847255    -0.01000
Br1236     Br  0.11617024  0.51756653  0.16706205    -0.01000
C1237       C  0.43315037  0.55790212  0.21123579    -0.02100
C1238       C  0.46630036  0.58246036  0.21507213     0.07600
C1239       C  0.46813609  0.62198981  0.20670699    -0.02200
C1240       C  0.43842753  0.63493101  0.19348017    -0.02200
C1241       C  0.40960246  0.60673757  0.18694769     0.07700
C1242       C  0.40885874  0.56741036  0.19518973    -0.02400
Br1243     Br  0.37771031  0.52523708  0.18325309    -0.01000
Br1244     Br  0.41305578  0.51975013  0.23102173    -0.01000
Br1245     Br  0.43861488  0.68991426  0.18327000    -0.01000
Br1246     Br  0.00939384  0.65863088  0.21478397    -0.01000
C1247       C  0.16889074  0.62493979  0.17663460    -0.02100
C1248       C  0.20561469  0.64271471  0.18203809     0.07600
C1249       C  0.20981410  0.65397798  0.20250063    -0.02200
C1250       C  0.18471822  0.63633265  0.21767486    -0.02200
C1251       C  0.14998386  0.61506787  0.21240583     0.07700
C1252       C  0.13991238  0.61572928  0.19179196    -0.02400
Br1253     Br  0.08606650  0.10746634  0.18439312    -0.01000
Br1254     Br  0.15808426  0.10902183  0.14926239    -0.01000
Br1255     Br  0.19910604  0.64107677  0.24537793    -0.01000
Br1256     Br  0.25093082  0.69203830  0.20980017    -0.01000
C1257       C  0.11494848  0.59982606  0.67915864    -0.02100
C1258       C  0.14746132  0.62689189  0.68025531     0.07600
C1259       C  0.17445842  0.62144032  0.69617639    -0.02200
C1260       C  0.16493670  0.59406291  0.71236602    -0.02200
C1261       C  0.13252352  0.56721156  0.71075933     0.07700
C1262       C  0.11235357  0.56647244  0.69232544    -0.02400
Br1263     Br  0.08786800  0.51770070  0.68258959    -0.01000
Br1264     Br  0.07265834  0.60768704  0.66034199    -0.01000
Br1265     Br  0.19828685  0.58963329  0.73540916    -0.01000
Br1266     Br  0.22415028  0.65061742  0.69564086    -0.01000
C1267       C  0.15397600  0.86980389  0.68301987    -0.02100
C1268       C  0.12896035  0.83811349  0.67643649     0.07600
C1269       C  0.08985486  0.83552377  0.68368694    -0.02200
C1270       C  0.07694558  0.86186391  0.69871832    -0.02200
C1271       C  0.10016868  0.89593061  0.70381305     0.07700
C1272       C  0.13908392  0.89957076  0.69610973    -0.02400
Br1273     Br  0.17248121  0.94395595  0.70446958    -0.01000
Br1274     Br  0.20847050  0.87204736  0.67430663    -0.01000
Br1275     Br  0.03168706  0.84551540  0.71488932    -0.01000
Br1276     Br  0.05353552  0.79622696  0.67281923    -0.01000
C1277       C  0.01090060  0.62682104  0.70755810    -0.02100
C1278       C  0.98995120  0.59238270  0.71508326     0.07600
C1279       C  0.44957194  0.58904084  0.71109856    -0.02200
C1280       C  0.43077326  0.61917541  0.69933280    -0.02200
C1281       C  0.45320252  0.65101982  0.68979767     0.07700
C1282       C  0.99349146  0.65375978  0.69381387    -0.02400
Br1283     Br  0.02616829  0.69414722  0.67991911    -0.01000
Br1284     Br  0.06190333  0.64026727  0.71794191    -0.01000
Br1285     Br  0.37442013  0.61706286  0.69648265    -0.01000
Br1286     Br  0.41972434  0.54360028  0.72235846    -0.01000
C1287       C  0.41590760  0.86657760  0.71311349    -0.02100
C1288       C  0.43452254  0.86380862  0.69377064     0.07600
C1289       C  0.46338179  0.89351721  0.68820105    -0.02200
C1290       C  0.97029470  0.92626220  0.70091558    -0.02200
C1291       C  0.95867567  0.92447701  0.72151477     0.07700
C1292       C  0.43044328  0.89461592  0.72739446    -0.02400
Br1293     Br  0.41212313  0.89208676  0.75511139    -0.01000
Br1294     Br  0.37156200  0.83165713  0.72028728    -0.01000
Br1295     Br  0.99196411  0.97479081  0.68878127    -0.01000
Br1296     Br  0.49649556  0.88846620  0.66415312    -0.01000
C1297       C  0.39150283  0.60066014  0.56731572    -0.02100
C1298       C  0.35266686  0.60364691  0.56056897     0.07600
C1299       C  0.32832707  0.63382295  0.56838726    -0.02200
C1300       C  0.34087161  0.65800238  0.58439387    -0.02200
C1301       C  0.38053959  0.65720866  0.59035330     0.07700
C1302       C  0.40624038  0.62927551  0.58111609    -0.02400
Br1303     Br  0.46177122  0.63145673  0.58642244    -0.01000
Br1304     Br  0.42400537  0.55730397  0.55781819    -0.01000
Br1305     Br  0.30357617  0.69287260  0.59765025    -0.01000
Br1306     Br  0.28033533  0.64630308  0.55504119    -0.01000
C1307       C  0.36198323  0.89689456  0.59286474    -0.02100
C1308       C  0.39389562  0.87032109  0.59057935     0.07600
C1309       C  0.42047801  0.87709739  0.57398624    -0.02200
C1310       C  0.41178028  0.90585478  0.55860701    -0.02200
C1311       C  0.37885794  0.93080180  0.56067516     0.07700
C1312       C  0.35815305  0.92985999  0.57941716    -0.02400
Br1313     Br  0.32799848  0.97545183  0.58816227    -0.01000
Br1314     Br  0.32118456  0.88745657  0.61330711    -0.01000
Br1315     Br  0.44815910  0.91630165  0.53662127    -0.01000
Br1316     Br  0.46877455  0.84741348  0.57241622    -0.01000
C1317       C  0.20736566  0.59505048  0.58119193    -0.02100
C1318       C  0.18141846  0.62645312  0.57599964     0.07600
C1319       C  0.16645995  0.62732218  0.55614703    -0.02200
C1320       C  0.18442478  0.60363852  0.54115925    -0.02200
C1321       C  0.20729352  0.57026742  0.54691391     0.07700
C1322       C  0.21327983  0.56339956  0.56771550    -0.02400
Br1323     Br  0.23164518  0.51267799  0.57816367    -0.01000
Br1324     Br  0.24072051  0.59763745  0.60462070    -0.01000
Br1325     Br  0.18324434  0.62219246  0.51354436    -0.01000
Br1326     Br  0.12395700  0.66240190  0.54897097    -0.01000
C1327       C  0.25815243  0.86692500  0.56278886    -0.02100
C1328       C  0.23754167  0.89852245  0.55349845     0.07600
C1329       C  0.19622256  0.89921117  0.55534770    -0.02200
C1330       C  0.17589516  0.86787009  0.56616611    -0.02200
C1331       C  0.19717873  0.83908230  0.57734179     0.07700
C1332       C  0.23863234  0.83972667  0.57613721    -0.02400
Br1333     Br  0.26899266  0.80258034  0.59227984    -0.01000
Br1334     Br  0.31100251  0.85548379  0.55429140    -0.01000
Br1335     Br  0.11930580  0.86366632  0.56523196    -0.01000
Br1336     Br  0.16770551  0.94272781  0.54302057    -0.01000
C1337       C  0.20838484  0.60330628  0.30172914    -0.02100
C1338       C  0.17357726  0.60980868  0.29082854     0.07600
C1339       C  0.15199037  0.64543254  0.29470236    -0.02200
C1340       C  0.15844562  0.66716133  0.31230927    -0.02200
C1341       C  0.19171336  0.65959945  0.32395330     0.07700
C1342       C  0.21788054  0.62894669  0.31805622    -0.02400
Br1343     Br  0.26534120  0.62108749  0.33300831    -0.01000
Br1344     Br  0.24347980  0.56069453  0.29421432    -0.01000
Br1345     Br  0.11818368  0.70320003  0.32188678    -0.01000
Br1346     Br  0.11276215  0.66527720  0.27617434    -0.01000
C1347       C  0.14038360  0.88999253  0.29967623    -0.02100
C1348       C  0.15353878  0.93024047  0.30347678     0.07600
C1349       C  0.17876669  0.93625878  0.32007310    -0.02200
C1350       C  0.19134677  0.90284667  0.33192236    -0.02200
C1351       C  0.17355738  0.86393103  0.32991370     0.07700
C1352       C  0.14775146  0.85812293  0.31359365    -0.02400
Br1353     Br  0.11973821  0.80732232  0.31075543    -0.01000
Br1354     Br  0.11108147  0.87736832  0.27573076    -0.01000
Br1355     Br  0.23438376  0.91023970  0.35029343    -0.01000
Br1356     Br  0.19578526  0.99004028  0.32726243    -0.01000
C1357       C  0.23247653  0.61006048  0.42566748    -0.02100
C1358       C  0.19809283  0.63229695  0.42925681     0.07600
C1359       C  0.17259549  0.61919023  0.44546090    -0.02200
C1360       C  0.18402469  0.58778745  0.45911912    -0.02200
C1361       C  0.22075908  0.56913500  0.45670968     0.07700
C1362       C  0.24134529  0.57682576  0.43822118    -0.02400
Br1363     Br  0.27125626  0.53495504  0.42610344    -0.01000
Br1364     Br  0.26888721  0.62485974  0.40378210    -0.01000
Br1365     Br  0.14637882  0.56303571  0.47775872    -0.01000
Br1366     Br  0.12178297  0.64330527  0.44853781    -0.01000
C1367       C  0.24637012  0.84618164  0.43177012    -0.02100
C1368       C  0.20494538  0.84595680  0.43101205     0.07600
C1369       C  0.18347007  0.87438625  0.44230688    -0.02200
C1370       C  0.20378612  0.90600944  0.45202941    -0.02200
C1371       C  0.24520860  0.90573546  0.45254539     0.07700
C1372       C  0.26557402  0.87300085  0.44447067    -0.02400
Br1373     Br  0.31674180  0.85934938  0.45405413    -0.01000
Br1374     Br  0.27759576  0.81069814  0.41520423    -0.01000
Br1375     Br  0.17517062  0.94852252  0.46511663    -0.01000
Br1376     Br  0.12697833  0.86917099  0.44497091    -0.01000
C1377       C  0.48559719  0.61978835  0.33374499    -0.02100
C1378       C  0.45855225  0.64809284  0.32651421     0.07600
C1379       C  0.44352053  0.64364212  0.30684685    -0.02200
C1380       C  0.45640843  0.61171986  0.29433915    -0.02200
C1381       C  0.48363461  0.58339823  0.30158895     0.07700
C1382       C  0.49719443  0.58722313  0.32160818    -0.02400
Br1383     Br  0.03615364  0.55070348  0.33193216    -0.01000
Br1384     Br  0.51013009  0.62814148  0.35958938    -0.01000
Br1385     Br  0.43914007  0.60864348  0.26680367    -0.01000
Br1386     Br  0.40709695  0.68275749  0.29671740    -0.01000
C1387       C  0.50930006  0.88583955  0.29553767    -0.02100
C1388       C  0.53413866  0.91688901  0.30319576     0.07600
C1389       C  0.54656240  0.91349545  0.32358938    -0.02200
C1390       C  0.53338444  0.88051320  0.33572910    -0.02200
C1391       C  0.50239169  0.85548357  0.32911925     0.07700
C1392       C  0.48998467  0.85858656  0.30897536    -0.02400
Br1393     Br  0.44484870  0.82765853  0.29991228    -0.01000
Br1394     Br  0.50350377  0.87654833  0.26695247    -0.01000
Br1395     Br  0.55711442  0.86975944  0.36160721    -0.01000
Br1396     Br  0.58118721  0.95274413  0.33581891    -0.01000
C1397       C  0.39593959  0.59647686  0.44254794    -0.02100
C1398       C  0.36014507  0.60244371  0.45300448     0.07600
C1399       C  0.33890514  0.63822768  0.44956790    -0.02200
C1400       C  0.35072749  0.66518903  0.43399048    -0.02200
C1401       C  0.38665989  0.65946048  0.42361504     0.07700
C1402       C  0.41001052  0.62583632  0.42841651    -0.02400
Br1403     Br  0.46189182  0.62104072  0.41638679    -0.01000
Br1404     Br  0.42631040  0.54903530  0.44824935    -0.01000
Br1405     Br  0.31783036  0.71045183  0.42709314    -0.01000
Br1406     Br  0.29623711  0.65369390  0.46722880    -0.01000
C1407       C  0.38728647  0.89761938  0.42199389    -0.02100
C1408       C  0.41701761  0.86963295  0.42629733     0.07600
C1409       C  0.43750249  0.87417550  0.44464795    -0.02200
C1410       C  0.42261023  0.89982040  0.45996197    -0.02200
C1411       C  0.39224070  0.92709100  0.45576444     0.07700
C1412       C  0.37936126  0.92926444  0.43549263    -0.02400
Br1413     Br  0.35346600  0.97596488  0.42506380    -0.01000
Br1414     Br  0.35414034  0.89097900  0.39871347    -0.01000
Br1415     Br  0.44531056  0.89911961  0.48618617    -0.01000
Br1416     Br  0.48622234  0.84630536  0.44865481    -0.01000
N1417       N  0.91710672  0.26333153  0.40456863    -0.36900
N1418       N  0.95233717  0.32036545  0.37744643    -0.57400
N1419       N  0.95828117  0.25593630  0.34594940    -0.36800
N1420       N  0.92439452  0.19906291  0.37363822    -0.57400
C1421       C  0.92084280  0.29500615  0.41740244     0.26700
C1422       C  0.91188161  0.22927212  0.41598670     0.26700
C1423       C  0.98405954  0.28473141  0.33905641     0.26700
C1424       C  0.96756095  0.22090352  0.33658864     0.26700
C1425       C  0.94089927  0.34713942  0.39170136     0.35400
C1426       C  0.96326689  0.34234682  0.36081565     0.35400
C1427       C  0.90355515  0.17878921  0.38819915     0.35400
C1428       C  0.92380493  0.17562972  0.35699305     0.35400
C1429       C  0.91637064  0.28076454  0.43718905    -0.22100
C1430       C  0.91232705  0.23936504  0.43632942    -0.22100
C1431       C  0.00975804  0.26799418  0.32500278    -0.22100
C1432       C  0.99923589  0.22771238  0.32339103    -0.22100
C1433       C  0.94598844  0.38640890  0.38424239    -0.23200
C1434       C  0.95892798  0.38335802  0.36454500    -0.23200
C1435       C  0.88905467  0.14242757  0.38068326    -0.23200
C1436       C  0.90210314  0.14036600  0.36089361    -0.23200
C1437       C  0.92695854  0.33635700  0.41151415    -0.18500
C1438       C  0.90168287  0.19017960  0.40874424    -0.18500
C1439       C  0.94780598  0.18311971  0.33963725    -0.18500
C1440       C  0.98221792  0.32651648  0.34341312    -0.18500
H1441       H  0.91573615  0.29793436  0.45098949     0.14400
H1442       H  0.90802251  0.21923446  0.44930577     0.14400
H1443       H  0.03311789  0.28346855  0.31644168     0.14400
H1444       H  0.01331252  0.20597518  0.31363736     0.14400
H1445       H  0.94099430  0.41448752  0.39206816     0.12700
H1446       H  0.96594967  0.40867423  0.35442257     0.12700
H1447       H  0.87224248  0.11904747  0.38885861     0.12700
H1448       H  0.89761276  0.11514604  0.35082345     0.12700
H1449       H  0.91316850  0.26513754  0.38902473     0.25900
H1450       H  0.93327203  0.26129010  0.35479311     0.25900
N1451       N  0.68984082  0.25665373  0.34994489    -0.36900
N1452       N  0.68017993  0.31059891  0.38148851    -0.57400
N1453       N  0.67997383  0.24154047  0.41218849    -0.36800
N1454       N  0.69291171  0.18735869  0.37933651    -0.57400
C1455       C  0.69512672  0.29222172  0.33948546     0.26700
C1456       C  0.70535439  0.22694059  0.33864688     0.26700
C1457       C  0.68899879  0.27380903  0.42374960     0.26700
C1458       C  0.69056796  0.20761879  0.42257133     0.26700
C1459       C  0.67083337  0.33659548  0.36628873     0.35400
C1460       C  0.67318284  0.32971646  0.39904297     0.35400
C1461       C  0.68935398  0.16765767  0.36162042     0.35400
C1462       C  0.68388100  0.15998925  0.39433783     0.35400
C1463       C  0.71478106  0.28503414  0.32136098    -0.22100
C1464       C  0.72109492  0.24379901  0.32078410    -0.22100
C1465       C  0.70349268  0.26002014  0.44212553    -0.22100
C1466       C  0.70448186  0.21836427  0.44135476    -0.22100
C1467       C  0.65676306  0.37213529  0.37431647    -0.23200
C1468       C  0.65977148  0.36843814  0.39495072    -0.23200
C1469       C  0.67803617  0.12754170  0.36539508    -0.23200
C1470       C  0.67494818  0.12262748  0.38612179    -0.23200
C1471       C  0.67983942  0.33014356  0.34550572    -0.18500
C1472       C  0.69816770  0.18487047  0.34217958    -0.18500
C1473       C  0.68869088  0.16735286  0.41527829    -0.18500
C1474       C  0.68558048  0.31547639  0.41815024    -0.18500
H1475       H  0.72249407  0.30696237  0.30952149     0.14400
H1476       H  0.73402899  0.22768558  0.30821141     0.14400
H1477       H  0.71309735  0.27815583  0.45471061     0.14400
H1478       H  0.71520650  0.19840472  0.45308345     0.14400
H1479       H  0.64757219  0.39898744  0.36624439     0.12700
H1480       H  0.65365380  0.39228236  0.40551236     0.12700
H1481       H  0.67338169  0.10398378  0.35440085     0.12700
H1482       H  0.66775758  0.09465190  0.39425650     0.12700
H1483       H  0.67087085  0.25151885  0.36231760     0.25900
H1484       H  0.66617678  0.24279300  0.39826835     0.25900
O1485       O  0.85324163  0.42487777  0.48665101    -0.80400
O1486       O  0.84727153  0.07505422  0.52758088    -0.80400
O1487       O  0.82026254  0.04478379  0.46133512    -0.80400
O1488       O  0.85041082  0.48737069  0.54463450    -0.80400
O1489       O  0.85279178  0.07310951  0.48587118    -0.80500
O1490       O  0.84600637  0.42946537  0.52889894    -0.80400
O1491       O  0.80916675  0.05047848  0.55193202    -0.80400
O1492       O  0.85650619  0.48154165  0.47045338    -0.80400
C1493       C  0.86807766  0.44606575  0.47231737     1.09300
C1494       C  0.83624753  0.07469139  0.54608213     1.09200
C1495       C  0.84487049  0.07116443  0.46735683     1.09300
C1496       C  0.86017452  0.45098440  0.54307698     1.09200
O1497       O  0.75909196  0.43367607  0.52316198    -0.80400
O1498       O  0.76795594  0.07575667  0.48297338    -0.80500
O1499       O  0.78593149  0.46497231  0.45414140    -0.80400
O1500       O  0.74245547  0.01513810  0.53316330    -0.80400
O1501       O  0.76174080  0.07617607  0.52422632    -0.80400
O1502       O  0.76792173  0.43334231  0.48291592    -0.80400
O1503       O  0.78073448  0.45544690  0.55133715    -0.80400
O1504       O  0.74580524  0.01464392  0.47841901    -0.80400
Co1505     Co  0.80797628  0.43857463  0.50555648     1.51500
Co1506     Co  0.80805224  0.06913720  0.50520253     1.51700
Co1507     Co  0.80120199  0.99504385  0.47695669     1.51600
Co1508     Co  0.79850189  0.00293957  0.53503880     1.51500
O1509       O  0.81272796  0.00506445  0.50556212    -1.42300
C1510       C  0.76009036  0.43040828  0.54217042     1.09200
C1511       C  0.74361068  0.05216736  0.47452693     1.09300
C1512       C  0.76776153  0.43620958  0.46350917     1.09300
C1513       C  0.73647782  0.05251827  0.53274965     1.09200
N1514       N  0.90345087  0.26179247  0.61097520    -0.36900
N1515       N  0.91375847  0.19613728  0.64126885    -0.57400
N1516       N  0.92111772  0.25666145  0.67301628    -0.36800
N1517       N  0.91019741  0.32190862  0.64261479    -0.57400
C1518       C  0.89521586  0.22924707  0.59935092     0.26700
C1519       C  0.89737420  0.29578775  0.59965546     0.26700
C1520       C  0.93377798  0.22341723  0.68328425     0.26700
C1521       C  0.92961045  0.28977731  0.68429821     0.26700
C1522       C  0.90470760  0.17295291  0.62517108     0.35400
C1523       C  0.92244782  0.17057360  0.65674579     0.35400
C1524       C  0.90593267  0.34787173  0.62672246     0.35400
C1525       C  0.91085434  0.34461625  0.65954033     0.35400
C1526       C  0.88549720  0.24291213  0.58010162    -0.22100
C1527       C  0.88642757  0.28451232  0.58037829    -0.22100
C1528       C  0.44840815  0.23590171  0.70166172    -0.22100
C1529       C  0.44651725  0.27737626  0.70209413    -0.22100
C1530       C  0.90707853  0.13230239  0.63062765    -0.23200
C1531       C  0.91947089  0.13085082  0.65028235    -0.23200
C1532       C  0.90484085  0.38729290  0.63368903    -0.23200
C1533       C  0.90517728  0.38497093  0.65434334    -0.23200
C1534       C  0.89474585  0.18749174  0.60551950    -0.18500
C1535       C  0.90022731  0.33681492  0.60617400    -0.18500
C1536       C  0.92304492  0.33125355  0.67902632    -0.18500
C1537       C  0.93434169  0.18241083  0.67641236    -0.18500
H1538       H  0.87777789  0.22489259  0.56714475     0.14400
H1539       H  0.87935706  0.30410685  0.56775558     0.14400
H1540       H  0.46013753  0.21708819  0.71357516     0.14400
H1541       H  0.45654839  0.29595843  0.71438754     0.14400
H1542       H  0.90139748  0.10615492  0.62134467     0.12700
H1543       H  0.92524846  0.10342943  0.65879635     0.12700
H1544       H  0.90288075  0.41515317  0.62497458     0.12700
H1545       H  0.90418613  0.41077233  0.66426489     0.12700
H1546       H  0.91371735  0.26070223  0.62557785     0.25900
H1547       H  0.90590154  0.25678787  0.65957599     0.25900
N1548       N  0.65237392  0.23350386  0.65734273    -0.36900
N1549       N  0.66156078  0.17093908  0.62701297    -0.57400
N1550       N  0.66661298  0.23322668  0.59507811    -0.36800
N1551       N  0.65800743  0.29588641  0.62568170    -0.57400
C1552       C  0.65140826  0.20054498  0.66986910     0.26700
C1553       C  0.64698561  0.26679830  0.66879270     0.26700
C1554       C  0.67887487  0.20015680  0.58493075     0.26700
C1555       C  0.68006631  0.26634699  0.58446047     0.26700
C1556       C  0.65691724  0.14631910  0.64347923     0.35400
C1557       C  0.65928038  0.14706122  0.61057709     0.35400
C1558       C  0.64707559  0.31987920  0.64109965     0.35400
C1559       C  0.66165097  0.32000699  0.60907660     0.35400
C1560       C  0.64569195  0.21336691  0.68964986    -0.22100
C1561       C  0.64341081  0.25493036  0.68898775    -0.22100
C1562       C  0.69909416  0.21262125  0.56740778    -0.22100
C1563       C  0.69917829  0.25406155  0.56690684    -0.22100
C1564       C  0.65343539  0.10637431  0.63725517    -0.23200
C1565       C  0.65164556  0.10727406  0.61662888    -0.23200
C1566       C  0.64306064  0.35941705  0.63413539    -0.23200
C1567       C  0.65334845  0.35969709  0.61401277    -0.23200
C1568       C  0.65317439  0.15912633  0.66396639    -0.18500
C1569       C  0.64242471  0.30733430  0.66158103    -0.18500
C1570       C  0.67677758  0.30753038  0.59019270    -0.18500
C1571       C  0.67149099  0.15898979  0.59070749    -0.18500
H1572       H  0.64245999  0.19484095  0.70324612     0.14400
H1573       H  0.63841633  0.27409347  0.70192439     0.14400
H1574       H  0.71210832  0.19404442  0.55586429     0.14400
H1575       H  0.71258925  0.27293823  0.55503585     0.14400
H1576       H  0.65119498  0.07903089  0.64644969     0.12700
H1577       H  0.64848409  0.08088579  0.60720227     0.12700
H1578       H  0.63497485  0.38576296  0.64274107     0.12700
H1579       H  0.65499025  0.38639491  0.60433161     0.12700
H1580       H  0.65459413  0.23320268  0.64179035     0.25900
H1581       H  0.64791722  0.23307444  0.60770748     0.25900
O1582       O  0.55054532  0.48742202  0.29878264    -0.80400
O1583       O  0.59925810  0.51104941  0.21090654    -0.80400
O1584       O  0.98051401  0.47409337  0.24847753    -0.80400
O1585       O  0.64097514  0.46081899  0.27123898    -0.80400
O1586       O  0.52937731  0.47889731  0.22628172    -0.80500
O1587       O  0.62914123  0.49849688  0.29757557    -0.80400
O1588       O  0.62413221  0.46774134  0.23178940    -0.80400
O1589       O  0.04308764  0.45183204  0.27139714    -0.80400
C1590       C  0.04415375  0.45348189  0.29045793     1.09300
C1591       C  0.61898376  0.47937040  0.21385130     1.09200
C1592       C  0.99392300  0.46567105  0.23105201     1.09300
C1593       C  0.64061281  0.46504276  0.29017276     1.09200
O1594       O  0.61652743  0.07958297  0.27944354    -0.80400
O1595       O  0.52991696  0.05479109  0.21091145    -0.80500
O1596       O  0.99741813  0.02405200  0.28080584    -0.80400
O1597       O  0.65045181  0.05313992  0.23148135    -0.80400
O1598       O  0.59388935  0.08549877  0.23124378    -0.80400
O1599       O  0.54133621  0.07156469  0.28289112    -0.80400
O1600       O  0.66856425  0.04556238  0.27217456    -0.80400
O1601       O  0.00381676  0.05170021  0.24184025    -0.80400
Co1602     Co  0.58416921  0.53433186  0.28806713     1.51500
Co1603     Co  0.56177447  0.53379982  0.23160133     1.51700
Co1604     Co  0.02751835  0.50054576  0.25647824     1.51600
Co1605     Co  0.64231112  0.50696107  0.25194723     1.51500
O1606       O  0.58442224  0.51897331  0.25869955    -1.42300
C1607       C  0.65295042  0.07708293  0.27955475     1.09200
C1608       C  0.00179926  0.06280140  0.22299117     1.09300
C1609       C  0.00738379  0.05884343  0.28722065     1.09300
C1610       C  0.63048544  0.08411079  0.22656140     1.09200
O1611       O  0.97078263  0.22044858  0.99161034    -0.80400
O1612       O  0.63272747  0.22739110  0.02409571    -0.80400
O1613       O  0.59948866  0.19687216  0.98382294    -0.80400
O1614       O  0.54621277  0.18847171  0.03352365    -0.80400
O1615       O  0.64022204  0.24816926  0.98501039    -0.80500
O1616       O  0.98876201  0.21746151  0.03146620    -0.80400
O1617       O  0.60404013  0.22430414  0.05443726    -0.80400
O1618       O  0.52130434  0.18307632  0.98515677    -0.80400
C1619       C  0.98476667  0.18772369  0.98507784     1.09300
C1620       C  0.63327659  0.21679895  0.04304301     1.09200
C1621       C  0.63250691  0.21224981  0.97929119     1.09300
C1622       C  0.00992345  0.18908362  0.03820370     1.09200
O1623       O  0.00623943  0.30474675  0.02960604    -0.80400
O1624       O  0.59375774  0.32033689  0.98885705    -0.80500
O1625       O  0.50905947  0.26110611  0.96493551    -0.80400
O1626       O  0.60323892  0.29899145  0.03762483    -0.80400
O1627       O  0.65285960  0.30530637  0.01570390    -0.80400
O1628       O  0.99324805  0.30382899  0.98873233    -0.80400
O1629       O  0.53228607  0.26485265  0.05177118    -0.80400
O1630       O  0.58699372  0.27669567  0.96425181    -0.80400
Co1631     Co  0.99392897  0.26195853  0.01018006     1.51500
Co1632     Co  0.60795338  0.27522925  0.00723586     1.51700
Co1633     Co  0.55449490  0.22993609  0.97638122     1.51600
Co1634     Co  0.57378406  0.24226063  0.03267163     1.51500
O1635       O  0.55247885  0.25255245  0.00466021    -1.42300
C1636       C  0.00870814  0.29293975  0.04769142     1.09200
C1637       C  0.59661918  0.31216812  0.97017094     1.09300
C1638       C  0.49054378  0.29231853  0.97056903     1.09300
C1639       C  0.63853089  0.31300461  0.03311020     1.09200
N1640       N  0.80073367  0.38560519  0.85497516    -0.36900
N1641       N  0.85889889  0.37921728  0.88489717    -0.57400
N1642       N  0.79807864  0.37551485  0.91733621    -0.36800
N1643       N  0.74052136  0.38306606  0.88621425    -0.57400
C1644       C  0.83281482  0.37812522  0.84337617     0.26700
C1645       C  0.76885854  0.37509827  0.84422693     0.26700
C1646       C  0.82875336  0.35775656  0.92646802     0.26700
C1647       C  0.76467383  0.36340784  0.92747693     0.26700
C1648       C  0.88260054  0.39107850  0.86911129     0.35400
C1649       C  0.88113251  0.37992745  0.90158778     0.35400
C1650       C  0.71897743  0.39334009  0.87004458     0.35400
C1651       C  0.71837515  0.39098303  0.90283497     0.35400
C1652       C  0.82143393  0.36241186  0.82499185    -0.22100
C1653       C  0.78085373  0.35985818  0.82564866    -0.22100
C1654       C  0.81478398  0.33494345  0.94302446    -0.22100
C1655       C  0.77427195  0.33853380  0.94365641    -0.22100
C1656       C  0.92006941  0.39994538  0.87584427    -0.23200
C1657       C  0.91928140  0.39238049  0.89642035    -0.23200
C1658       C  0.68307731  0.40845715  0.87643888    -0.23200
C1659       C  0.68275667  0.40707805  0.89722121    -0.23200
C1660       C  0.87160186  0.38882776  0.84859489    -0.18500
C1661       C  0.72988552  0.38488624  0.84977760    -0.18500
C1662       C  0.72607080  0.37464001  0.92218815    -0.18500
C1663       C  0.86896450  0.36296630  0.92052592    -0.18500
H1664       H  0.84034739  0.35443737  0.81234058     0.14400
H1665       H  0.76225384  0.35010192  0.81344237     0.14400
H1666       H  0.83196331  0.31737286  0.95349485     0.14400
H1667       H  0.75419767  0.32415125  0.95460455     0.14400
H1668       H  0.94575624  0.40855409  0.86675684     0.12700
H1669       H  0.94422529  0.39435074  0.90633280     0.12700
H1670       H  0.65904594  0.41818077  0.86714977     0.12700
H1671       H  0.65818182  0.41456191  0.90706011     0.12700
H1672       H  0.80058695  0.40294967  0.86803833     0.25900
H1673       H  0.80011852  0.39696325  0.90560451     0.25900
N1674       N  0.80880853  0.12503716  0.92004507    -0.36900
N1675       N  0.75169545  0.11074605  0.88796073    -0.57400
N1676       N  0.81527533  0.10059235  0.85909506    -0.36800
N1677       N  0.87259154  0.11234810  0.89189346    -0.57400
C1678       C  0.77747329  0.14755794  0.92527594     0.26700
C1679       C  0.84036524  0.14185362  0.92912201     0.26700
C1680       C  0.78487879  0.08813445  0.84744592     0.26700
C1681       C  0.84920979  0.09204633  0.84907962     0.26700
C1682       C  0.72753546  0.11456238  0.90429990     0.35400
C1683       C  0.72964842  0.09639392  0.87274608     0.35400
C1684       C  0.89444735  0.12295255  0.90801562     0.35400
C1685       C  0.89708030  0.11376726  0.87553396     0.35400
C1686       C  0.78958650  0.18000784  0.93692144    -0.22100
C1687       C  0.82958385  0.17687864  0.93897941    -0.22100
C1688       C  0.79995344  0.07294336  0.82946158    -0.22100
C1689       C  0.84038283  0.07544785  0.83048991    -0.22100
C1690       C  0.69006823  0.10066203  0.89983170    -0.23200
C1691       C  0.69104446  0.09050610  0.87967861    -0.23200
C1692       C  0.93228615  0.13384721  0.90151169    -0.23200
C1693       C  0.93425773  0.12683792  0.88110753    -0.23200
C1694       C  0.73788109  0.13684698  0.92162757    -0.18500
C1695       C  0.87888899  0.12684674  0.92798235    -0.18500
C1696       C  0.88800252  0.09878726  0.85616899    -0.18500
C1697       C  0.74398938  0.08800699  0.85283751    -0.18500
H1698       H  0.77138341  0.20328861  0.94338855     0.14400
H1699       H  0.84851590  0.19771095  0.94698212     0.14400
H1700       H  0.78357947  0.06030766  0.81706282     0.14400
H1701       H  0.86096216  0.06573118  0.81890391     0.14400
H1702       H  0.66414928  0.10060443  0.90962128     0.11100
H1703       H  0.66599284  0.08005255  0.87120252     0.12700
H1704       H  0.95591215  0.14665023  0.91025392     0.12700
H1705       H  0.96008577  0.13119116  0.87141178     0.12700
H1706       H  0.80814020  0.09733029  0.91257883     0.25900
H1707       H  0.81351172  0.11545827  0.87279000     0.25900
O1708       O  0.59791072  0.41814397  0.73725382    -0.80400
O1709       O  0.60298944  0.06206491  0.78468792    -0.80400
O1710       O  0.60263891  0.01053143  0.72704019    -0.80400
O1711       O  0.57454254  0.43641826  0.80354667    -0.80400
O1712       O  0.59867029  0.06669679  0.74286703    -0.80500
O1713       O  0.60517731  0.41173433  0.77720970    -0.80400
O1714       O  0.61143199  0.00196339  0.79538525    -0.80400
O1715       O  0.56008242  0.45011578  0.71612180    -0.80400
C1716       C  0.58592590  0.42355161  0.71955136     1.09300
C1717       C  0.62191590  0.03822273  0.79570675     1.09200
C1718       C  0.61305708  0.04660451  0.72844323     1.09300
C1719       C  0.60312429  0.41701085  0.79594957     1.09200
O1720       O  0.52015263  0.40727421  0.78270920    -0.80400
O1721       O  0.51329244  0.05747576  0.74509510    -0.80500
O1722       O  0.49314514  0.47699273  0.73986390    -0.80400
O1723       O  0.54129387  0.01072585  0.81490398    -0.80400
O1724       O  0.51844732  0.04607320  0.78891496    -0.80400
O1725       O  0.51328922  0.41471985  0.74188177    -0.80400
O1726       O  0.50112102  0.46867153  0.78662406    -0.80400
O1727       O  0.52926051  0.03315352  0.71502250    -0.80400
Co1728     Co  0.55976806  0.41773208  0.75999758     1.51500
Co1729     Co  0.55951079  0.04845997  0.76498271     1.51700
Co1730     Co  0.54851743  0.49652102  0.73514648     1.51600
Co1731     Co  0.55635059  0.48781432  0.78990290     1.51500
O1732       O  0.56746823  0.48079755  0.76160850    -1.42300
C1733       C  0.49426483  0.43131522  0.78900934     1.09200
C1734       C  0.51200578  0.05968916  0.72549467     1.09300
C1735       C  0.48783391  0.43974858  0.73627959     1.09300
C1736       C  0.51814123  0.03721505  0.80818008     1.09200
N1737       N  0.82493908  0.14771982  0.10164753    -0.36900
N1738       N  0.87729369  0.12548724  0.13346399    -0.57400
N1739       N  0.81294122  0.13601750  0.16372966    -0.36800
N1740       N  0.75947779  0.15339625  0.13168073    -0.57400
C1741       C  0.85740421  0.14064962  0.09003096     0.26700
C1742       C  0.79410213  0.15210309  0.08920636     0.26700
C1743       C  0.84090307  0.11937412  0.17538160     0.26700
C1744       C  0.77750760  0.12937281  0.17332110     0.26700
C1745       C  0.90321403  0.12240233  0.11771330     0.35400
C1746       C  0.89755762  0.11779414  0.15045967     0.35400
C1747       C  0.74343356  0.17105495  0.11533019     0.35400
C1748       C  0.73706401  0.16356293  0.14794147     0.35400
C1749       C  0.84698461  0.14185232  0.06980145    -0.22100
C1750       C  0.80699740  0.14725842  0.06933887    -0.22100
C1751       C  0.82312837  0.10325259  0.19290525    -0.22100
C1752       C  0.78330973  0.10750804  0.19107314    -0.22100
C1753       C  0.93935354  0.11017113  0.12471250    -0.23200
C1754       C  0.93596070  0.10776546  0.14538354    -0.23200
C1755       C  0.71070109  0.19279823  0.12125746    -0.23200
C1756       C  0.70723224  0.18884959  0.14199991    -0.23200
C1757       C  0.89599404  0.13335284  0.09722661    -0.18500
C1758       C  0.75584035  0.16501991  0.09498959    -0.18500
C1759       C  0.74078740  0.14580092  0.16742052    -0.18500
C1760       C  0.88186111  0.11725188  0.17051603    -0.18500
H1761       H  0.86576802  0.13919127  0.05653417     0.14400
H1762       H  0.78986146  0.14967761  0.05574123     0.14400
H1763       H  0.83691356  0.08867124  0.20561624     0.14400
H1764       H  0.76143438  0.09662629  0.20205372     0.14400
H1765       H  0.96581085  0.10464268  0.11587106     0.12700
H1766       H  0.95917804  0.09912314  0.15547730     0.12700
H1767       H  0.69084987  0.20901320  0.11158104     0.12700
H1768       H  0.68415661  0.20116652  0.15147482     0.12700
H1769       H  0.82440461  0.15375007  0.11706286     0.25900
H1770       H  0.81867394  0.15459138  0.15106551     0.25900
N1771       N  0.81070731  0.40899178  0.16138977    -0.36900
N1772       N  0.75798466  0.40204554  0.12578834    -0.57400
N1773       N  0.82233071  0.37278012  0.10211662    -0.36800
N1774       N  0.87596073  0.38423448  0.13670598    -0.57400
C1775       C  0.77809422  0.42730243  0.16844035     0.26700
C1776       C  0.84070884  0.41863570  0.17389130     0.26700
C1777       C  0.79435543  0.37158995  0.08766959     0.26700
C1778       C  0.85769094  0.36692411  0.09299580     0.26700
C1779       C  0.73134309  0.41177173  0.14026532     0.35400
C1780       C  0.73722342  0.39226307  0.10916176     0.35400
C1781       C  0.89282292  0.38270630  0.15508167     0.35400
C1782       C  0.89947539  0.36355010  0.12402964     0.35400
C1783       C  0.78696355  0.44783283  0.18601359    -0.22100
C1784       C  0.82631276  0.44232757  0.18944161    -0.22100
C1785       C  0.81226943  0.36389693  0.06912881    -0.22100
C1786       C  0.85212733  0.36226280  0.07234145    -0.22100
C1787       C  0.69365717  0.40955971  0.13255723    -0.23200
C1788       C  0.69745326  0.39814520  0.11282787    -0.23200
C1789       C  0.92718522  0.36088240  0.15410383    -0.23200
C1790       C  0.93140708  0.34867546  0.13441574    -0.23200
C1791       C  0.74000407  0.42453849  0.16012198    -0.18500
C1792       C  0.88019569  0.40514863  0.17197609    -0.18500
C1793       C  0.89384262  0.35966654  0.10299062    -0.18500
C1794       C  0.75309523  0.37608677  0.09098370    -0.18500
H1795       H  0.76709023  0.46494114  0.19546204     0.14400
H1796       H  0.84219873  0.45395378  0.20222164     0.14400
H1797       H  0.79831698  0.35951600  0.05472520     0.14400
H1798       H  0.87425924  0.35602195  0.06085541     0.14400
H1799       H  0.66607692  0.41573527  0.14026405     0.12700
H1800       H  0.67336708  0.39375788  0.10255564     0.12700
H1801       H  0.94749482  0.35523816  0.16621148     0.12700
H1802       H  0.95555032  0.33132443  0.12837691     0.12700
H1803       H  0.81103876  0.38789694  0.14989905     0.25900
H1804       H  0.81737332  0.37218203  0.11761705     0.25900
C1805       C  0.66252801  0.02771167  0.82726403    -0.02100
C1806       C  0.65402631  0.05183676  0.80985064     0.07600
C1807       C  0.67524910  0.08916805  0.80713359    -0.02200
C1808       C  0.70427957  0.10108402  0.82118269    -0.02200
C1809       C  0.71459025  0.07492706  0.83726938     0.07700
C1810       C  0.69471138  0.03739914  0.83954763    -0.02400
Br1811     Br  0.71091601  0.99990796  0.86035311    -0.01000
Br1812     Br  0.62604336  0.98657155  0.83767925    -0.01000
Br1813     Br  0.72906742  0.15413234  0.81900127    -0.01000
Br1814     Br  0.66413797  0.12562215  0.78496270    -0.01000
C1815       C  0.96939823  0.03056167  0.83765750    -0.02100
C1816       C  0.98718495  0.05433320  0.82174927     0.07600
C1817       C  0.97352390  0.09409536  0.81808947    -0.02200
C1818       C  0.94073362  0.10851171  0.82901767    -0.02200
C1819       C  0.92174798  0.08370986  0.84385116     0.07700
C1820       C  0.93662594  0.04516287  0.84842894    -0.02400
Br1821     Br  0.91177265  0.01232758  0.86977499    -0.01000
Br1822     Br  0.98877889  0.97782292  0.84526800    -0.01000
Br1823     Br  0.92224850  0.16266885  0.82419899    -0.01000
Br1824     Br  0.50132536  0.13056284  0.79932081    -0.01000
C1825       C  0.70439139  0.41720425  0.81793523    -0.02100
C1826       C  0.69963437  0.38828549  0.83383720     0.07600
C1827       C  0.66440969  0.36491066  0.83543900    -0.02200
C1828       C  0.63198810  0.37525508  0.82370632    -0.02200
C1829       C  0.63657033  0.40467424  0.80821490     0.07700
C1830       C  0.67396445  0.42279509  0.80420172    -0.02400
Br1831     Br  0.68391857  0.45618914  0.78023939    -0.01000
Br1832     Br  0.75076664  0.45193357  0.81549684    -0.01000
Br1833     Br  0.58178417  0.34880210  0.82876108    -0.01000
Br1834     Br  0.66069681  0.31832897  0.85333685    -0.01000
C1835       C  0.92714426  0.44306128  0.80509112    -0.02100
C1836       C  0.95888696  0.41661945  0.80137390     0.07600
C1837       C  0.95793474  0.37795175  0.81128032    -0.02200
C1838       C  0.92997049  0.36919862  0.82692069    -0.02200
C1839       C  0.90114905  0.39758461  0.83195980     0.07700
C1840       C  0.89887459  0.43370799  0.82043190    -0.02400
Br1841     Br  0.85733576  0.47118186  0.82610468    -0.01000
Br1842     Br  0.91980684  0.49094040  0.78837961    -0.01000
Br1843     Br  0.93082209  0.31806970  0.84157026    -0.01000
Br1844     Br  0.49231289  0.33506223  0.80295702    -0.01000
C1845       C  0.73329302  0.20765715  0.06563941    -0.02100
C1846       C  0.72706848  0.17411248  0.07883971     0.07600
C1847       C  0.69272427  0.14970432  0.07704666    -0.02200
C1848       C  0.66260246  0.16198891  0.06410275    -0.02200
C1849       C  0.66792092  0.19699532  0.05182098     0.07700
C1850       C  0.70511558  0.21692098  0.05110421    -0.02400
Br1851     Br  0.71941951  0.25523562  0.02991934    -0.01000
Br1852     Br  0.77893746  0.24297316  0.06827477    -0.01000
Br1853     Br  0.61464128  0.13005439  0.06243813    -0.01000
Br1854     Br  0.68677426  0.09981822  0.09250565    -0.01000
C1855       C  0.96591532  0.13066834  0.05064858    -0.02100
C1856       C  0.99226335  0.16288003  0.05482753     0.07600
C1857       C  0.99193285  0.17829879  0.07466793    -0.02200
C1858       C  0.95950712  0.17077085  0.08778265    -0.02200
C1859       C  0.93118652  0.14043694  0.08315290     0.07700
C1860       C  0.93771356  0.11720525  0.06553183    -0.02400
Br1861     Br  0.90943432  0.06659045  0.06218441    -0.01000
Br1862     Br  0.96937807  0.10465485  0.02482798    -0.01000
Br1863     Br  0.95373567  0.20454475  0.11139261    -0.01000
Br1864     Br  0.53688183  0.20680059  0.08500323    -0.01000
C1865       C  0.66514227  0.31978604  0.06875960    -0.02100
C1866       C  0.66370894  0.33467668  0.04852027     0.07600
C1867       C  0.69155039  0.36564420  0.04269991    -0.02200
C1868       C  0.71916793  0.38095121  0.05668890    -0.02200
C1869       C  0.72415460  0.36100763  0.07550240     0.07700
C1870       C  0.69765096  0.32903935  0.08095642    -0.02400
Br1871     Br  0.70547201  0.29798608  0.10557012    -0.01000
Br1872     Br  0.62130957  0.29124329  0.08153234    -0.01000
Br1873     Br  0.74860984  0.43038629  0.05045184    -0.01000
Br1874     Br  0.69157955  0.38905247  0.01597864    -0.01000
C1875       C  0.98886735  0.34674165  0.07217624    -0.02100
C1876       C  0.98114682  0.30880919  0.06330793     0.07600
C1877       C  0.94539114  0.28771609  0.06852240    -0.02200
C1878       C  0.92035569  0.30222968  0.08368350    -0.02200
C1879       C  0.92613322  0.34153130  0.09087462     0.07700
C1880       C  0.96072160  0.36377023  0.08541040    -0.02400
Br1881     Br  0.96888423  0.41769312  0.09561941    -0.01000
Br1882     Br  0.03676970  0.37637505  0.06514283    -0.01000
Br1883     Br  0.87626111  0.26914315  0.09397195    -0.01000
Br1884     Br  0.92364391  0.24465299  0.05282597    -0.01000
C1885       C  0.62822015  0.32438789  0.93629196    -0.02100
C1886       C  0.61984714  0.33920840  0.95569527     0.07600
C1887       C  0.64268800  0.37243993  0.96236065    -0.02200
C1888       C  0.67843329  0.38351396  0.95203322    -0.02200
C1889       C  0.69092262  0.36149491  0.93492327     0.07700
C1890       C  0.66525707  0.33163818  0.92721382    -0.02400
Br1891     Br  0.68107697  0.29927236  0.90462267    -0.01000
Br1892     Br  0.58590339  0.30347581  0.92026716    -0.01000
Br1893     Br  0.70990049  0.42867659  0.96099885    -0.01000
Br1894     Br  0.62003006  0.40763547  0.98221531    -0.01000
C1895       C  0.91529765  0.30728961  0.92858495    -0.02100
C1896       C  0.90004370  0.34533321  0.93342784     0.07600
C1897       C  0.91582101  0.36733936  0.94951357    -0.02200
C1898       C  0.94676400  0.35134730  0.96095994    -0.02200
C1899       C  0.96171647  0.31218828  0.95670210     0.07700
C1900       C  0.94578090  0.29058918  0.94002233    -0.02400
Br1901     Br  0.96330544  0.23728204  0.93231034    -0.01000
Br1902     Br  0.89325733  0.27757005  0.90622872    -0.01000
Br1903     Br  0.96887784  0.38510009  0.98177785    -0.01000
Br1904     Br  0.89475917  0.41987116  0.95559904    -0.01000
C1905       C  0.68734796  0.16446543  0.97146199    -0.02100
C1906       C  0.65812513  0.19075376  0.96477060     0.07600
C1907       C  0.64994002  0.19242396  0.94391941    -0.02200
C1908       C  0.67679345  0.17730023  0.92964414    -0.02200
C1909       C  0.70716957  0.15191979  0.93616886     0.07700
C1910       C  0.70989747  0.14297197  0.95716658    -0.02400
Br1911     Br  0.74209593  0.09915474  0.96620438    -0.01000
Br1912     Br  0.69413211  0.15551456  0.00007955    -0.01000
Br1913     Br  0.67199001  0.19366654  0.90159655    -0.01000
Br1914     Br  0.59871778  0.20706098  0.93493758    -0.01000
C1915       C  0.94457574  0.11489024  0.94597385    -0.02100
C1916       C  0.90505762  0.12733125  0.94660099     0.07600
C1917       C  0.89127372  0.13900941  0.96599496    -0.02200
C1918       C  0.91757109  0.15702213  0.97955538    -0.02200
C1919       C  0.95832279  0.15830053  0.97477992     0.07700
C1920       C  0.97199768  0.13311760  0.95894368    -0.02400
Br1921     Br  0.52709922  0.12410687  0.95364169    -0.01000
Br1922     Br  0.95877279  0.06649142  0.93157727    -0.01000
Br1923     Br  0.89732725  0.17802587  0.00481021    -0.01000
Br1924     Br  0.84111237  0.11931439  0.97648807    -0.01000
C1925       C  0.90710567  0.40546248  0.20775151    -0.02100
C1926       C  0.91073794  0.41740489  0.18722144     0.07600
C1927       C  0.94434918  0.44056043  0.18093648    -0.02200
C1928       C  0.97424831  0.45020375  0.19475814    -0.02200
C1929       C  0.96812790  0.44361165  0.21596294     0.07700
C1930       C  0.93337327  0.42119886  0.22222125    -0.02400
Br1931     Br  0.91779686  0.41390600  0.25035580    -0.01000
Br1932     Br  0.86617506  0.36683538  0.21603655    -0.01000
Br1933     Br  0.52295011  0.47276999  0.18359410    -0.01000
Br1934     Br  0.94853519  0.46208208  0.15347493    -0.01000
C1935       C  0.65926073  0.42148301  0.20055098    -0.02100
C1936       C  0.64149321  0.45951590  0.19723334     0.07600
C1937       C  0.65230644  0.48184900  0.17956327    -0.02200
C1938       C  0.68694928  0.47292480  0.16887475    -0.02200
C1939       C  0.70626936  0.43662509  0.17307625     0.07700
C1940       C  0.69074911  0.40956628  0.18797572    -0.02400
Br1941     Br  0.71242225  0.35611202  0.19078701    -0.01000
Br1942     Br  0.63906562  0.38399986  0.22110167    -0.01000
Br1943     Br  0.70793678  0.51032534  0.14845372    -0.01000
Br1944     Br  0.61607774  0.01766913  0.16711688    -0.01000
C1945       C  0.93311934  0.05795655  0.21122342    -0.02100
C1946       C  0.96628134  0.08249222  0.21506804     0.07600
C1947       C  0.96814954  0.12202458  0.20670853    -0.02200
C1948       C  0.93844687  0.13500108  0.19348751    -0.02200
C1949       C  0.90960620  0.10683166  0.18694849     0.07700
C1950       C  0.90884206  0.06749367  0.19517723    -0.02400
Br1951     Br  0.87766404  0.02535064  0.18323048    -0.01000
Br1952     Br  0.91300041  0.01977628  0.23098923    -0.01000
Br1953     Br  0.93866319  0.18999701  0.18329527    -0.01000
Br1954     Br  0.50931317  0.15862902  0.21480089    -0.01000
C1955       C  0.66888977  0.12500229  0.17669292    -0.02100
C1956       C  0.70562497  0.14276745  0.18208295     0.07600
C1957       C  0.70986231  0.15400065  0.20254824    -0.02200
C1958       C  0.68480316  0.13631859  0.21772857    -0.02200
C1959       C  0.65004035  0.11509094  0.21246927     0.07700
C1960       C  0.63993165  0.11579532  0.19186047    -0.02400
Br1961     Br  0.58604647  0.60760800  0.18444517    -0.01000
Br1962     Br  0.65802490  0.60908980  0.14928944    -0.01000
Br1963     Br  0.69930197  0.14093241  0.24542236    -0.01000
Br1964     Br  0.75098965  0.19205317  0.20984387    -0.01000
C1965       C  0.61459616  0.09969871  0.67904864    -0.02100
C1966       C  0.64700618  0.12691452  0.68008643     0.07600
C1967       C  0.67414495  0.12156568  0.69595647    -0.02200
C1968       C  0.66479688  0.09421262  0.71218066    -0.02200
C1969       C  0.63247508  0.06722798  0.71063367     0.07700
C1970       C  0.61222795  0.06635186  0.69222519    -0.02400
Br1971     Br  0.58798627  0.01742477  0.68252197    -0.01000
Br1972     Br  0.57215300  0.10730099  0.66029517    -0.01000
Br1973     Br  0.69824701  0.09002322  0.73519630    -0.01000
Br1974     Br  0.72379624  0.15082865  0.69531112    -0.01000
C1975       C  0.65362229  0.36988277  0.68277559    -0.02100
C1976       C  0.62855121  0.33818214  0.67625118     0.07600
C1977       C  0.58951618  0.33558074  0.68359820    -0.02200
C1978       C  0.57673569  0.36191687  0.69865925    -0.02200
C1979       C  0.59999146  0.39599651  0.70369765     0.07700
C1980       C  0.63882775  0.39966835  0.69588756    -0.02400
Br1981     Br  0.67224254  0.44414588  0.70411311    -0.01000
Br1982     Br  0.70807146  0.37207654  0.67398494    -0.01000
Br1983     Br  0.53158891  0.34558272  0.71491271    -0.01000
Br1984     Br  0.55309300  0.29631396  0.67279742    -0.01000
C1985       C  0.51114117  0.12698228  0.70747705    -0.02100
C1986       C  0.49014056  0.09257666  0.71500338     0.07600
C1987       C  0.94940204  0.08880783  0.71119734    -0.02200
C1988       C  0.93052388  0.11894723  0.69946875    -0.02200
C1989       C  0.95288432  0.15083396  0.68992476     0.07700
C1990       C  0.49379736  0.15390363  0.69370207    -0.02400
Br1991     Br  0.52655086  0.19419124  0.67978700    -0.01000
Br1992     Br  0.56211257  0.14042360  0.71790047    -0.01000
Br1993     Br  0.87415529  0.11678677  0.69668670    -0.01000
Br1994     Br  0.91963939  0.04332256  0.72247219    -0.01000
C1995       C  0.91576979  0.36648095  0.71326376    -0.02100
C1996       C  0.93436278  0.36363138  0.69392154     0.07600
C1997       C  0.96326266  0.39327415  0.68832102    -0.02200
C1998       C  0.47027139  0.42647720  0.70084652    -0.02200
C1999       C  0.45866962  0.42459316  0.72144654     0.07700
C2000       C  0.93034789  0.39454749  0.72751822    -0.02400
Br2001     Br  0.91196601  0.39219374  0.75522528    -0.01000
Br2002     Br  0.87138336  0.33163904  0.72046714    -0.01000
Br2003     Br  0.49176745  0.47511108  0.68874315    -0.01000
Br2004     Br  0.99630052  0.38810952  0.66425199    -0.01000
C2005       C  0.89152669  0.10058173  0.56747924    -0.02100
C2006       C  0.85274981  0.10355791  0.56064681     0.07600
C2007       C  0.82834572  0.13375035  0.56839634    -0.02200
C2008       C  0.84075343  0.15795206  0.58442101    -0.02200
C2009       C  0.88036556  0.15716017  0.59046966     0.07700
C2010       C  0.90614546  0.12921809  0.58129950    -0.02400
Br2011     Br  0.96162440  0.13139200  0.58673948    -0.01000
Br2012     Br  0.92410311  0.05719916  0.55808154    -0.01000
Br2013     Br  0.80334354  0.19282541  0.59758850    -0.01000
Br2014     Br  0.78045486  0.14620352  0.55495010    -0.01000
C2015       C  0.86205339  0.39695996  0.59297326    -0.02100
C2016       C  0.89389235  0.37027904  0.59073567     0.07600
C2017       C  0.92052995  0.37692395  0.57415427    -0.02200
C2018       C  0.91191702  0.40561332  0.55872853    -0.02200
C2019       C  0.87909451  0.43071471  0.56076485     0.07700
C2020       C  0.85837071  0.42991318  0.57950247    -0.02400
Br2021     Br  0.82831428  0.47561672  0.58819057    -0.01000
Br2022     Br  0.82110065  0.38763714  0.61334491    -0.01000
Br2023     Br  0.94822804  0.41562578  0.53667070    -0.01000
Br2024     Br  0.96877147  0.34713094  0.57265592    -0.01000
C2025       C  0.70729292  0.09504337  0.58112034    -0.02100
C2026       C  0.68137908  0.12643377  0.57586346     0.07600
C2027       C  0.66657968  0.12728359  0.55597908    -0.02200
C2028       C  0.68466006  0.10358977  0.54103243    -0.02200
C2029       C  0.70750038  0.07023171  0.54684011     0.07700
C2030       C  0.71336239  0.06339525  0.56765639    -0.02400
Br2031     Br  0.73181941  0.01273345  0.57813785    -0.01000
Br2032     Br  0.74038808  0.09764461  0.60464654    -0.01000
Br2033     Br  0.68367887  0.12213027  0.51340933    -0.01000
Br2034     Br  0.62411898  0.16234184  0.54871183    -0.01000
C2035       C  0.75826701  0.36687946  0.56285400    -0.02100
C2036       C  0.73774775  0.39843706  0.55347716     0.07600
C2037       C  0.69641292  0.39910527  0.55519008    -0.02200
C2038       C  0.67597982  0.36780158  0.56598057    -0.02200
C2039       C  0.69715002  0.33905921  0.57724319     0.07700
C2040       C  0.73861108  0.33971028  0.57616338    -0.02400
Br2041     Br  0.76879419  0.30259042  0.59241299    -0.01000
Br2042     Br  0.81118376  0.35540532  0.55449129    -0.01000
Br2043     Br  0.61941022  0.36357569  0.56488191    -0.01000
Br2044     Br  0.66802226  0.44252329  0.54269474    -0.01000
C2045       C  0.70845806  0.10329848  0.30175324    -0.02100
C2046       C  0.67363400  0.10979701  0.29086656     0.07600
C2047       C  0.65204856  0.14541487  0.29474891    -0.02200
C2048       C  0.65849839  0.16711573  0.31236425    -0.02200
C2049       C  0.69178450  0.15955881  0.32399568     0.07700
C2050       C  0.71796973  0.12893834  0.31807736    -0.02400
Br2051     Br  0.76548486  0.12113294  0.33299053    -0.01000
Br2052     Br  0.74355214  0.06069629  0.29422307    -0.01000
Br2053     Br  0.61821886  0.20311261  0.32196422    -0.01000
Br2054     Br  0.61284292  0.16528628  0.27621726    -0.01000
C2055       C  0.64050264  0.38997512  0.29969104    -0.02100
C2056       C  0.65363843  0.43023051  0.30349298     0.07600
C2057       C  0.67886645  0.43624503  0.32009091    -0.02200
C2058       C  0.69143051  0.40283472  0.33195160    -0.02200
C2059       C  0.67364709  0.36391186  0.32994583     0.07700
C2060       C  0.64787340  0.35809910  0.31360944    -0.02400
Br2061     Br  0.61992719  0.30726814  0.31073616    -0.01000
Br2062     Br  0.61123011  0.37735054  0.27573561    -0.01000
Br2063     Br  0.73447035  0.41023572  0.35032043    -0.01000
Br2064     Br  0.69592516  0.49002470  0.32725925    -0.01000
C2065       C  0.73281055  0.11013702  0.42572438    -0.02100
C2066       C  0.69832327  0.13221029  0.42929959     0.07600
C2067       C  0.67284517  0.11897602  0.44548829    -0.02200
C2068       C  0.68436063  0.08758511  0.45913458    -0.02200
C2069       C  0.72117867  0.06909254  0.45673744     0.07700
C2070       C  0.74178862  0.07692067  0.43826708    -0.02400
Br2071     Br  0.77192951  0.03522952  0.42614232    -0.01000
Br2072     Br  0.76922183  0.12516310  0.40387564    -0.01000
Br2073     Br  0.64677097  0.06267449  0.47775580    -0.01000
Br2074     Br  0.62196343  0.14293253  0.44857519    -0.01000
C2075       C  0.74659406  0.34595866  0.43188166    -0.02100
C2076       C  0.70517201  0.34583207  0.43107379     0.07600
C2077       C  0.68371887  0.37432387  0.44233928    -0.02200
C2078       C  0.70405967  0.40595127  0.45204430    -0.02200
C2079       C  0.74547694  0.40562509  0.45257962     0.07700
C2080       C  0.76580780  0.37280214  0.44456965    -0.02400
Br2081     Br  0.81693823  0.35912609  0.45420775    -0.01000
Br2082     Br  0.77780365  0.31030084  0.41540526    -0.01000
Br2083     Br  0.67548203  0.44852265  0.46510262    -0.01000
Br2084     Br  0.62722294  0.36916738  0.44500475    -0.01000
C2085       C  0.98624513  0.12012976  0.33370329    -0.02100
C2086       C  0.95871493  0.14803343  0.32658229     0.07600
C2087       C  0.94330407  0.14326387  0.30701582    -0.02200
C2088       C  0.95621386  0.11136110  0.29450393    -0.02200
C2089       C  0.98392714  0.08344219  0.30163943     0.07700
C2090       C  0.99801872  0.08767475  0.32154046    -0.02400
Br2091     Br  0.53573738  0.05044611  0.33203370    -0.01000
Br2092     Br  0.01111729  0.12890717  0.35942740    -0.01000
Br2093     Br  0.93841034  0.10787860  0.26707404    -0.01000
Br2094     Br  0.90634594  0.18195953  0.29701042    -0.01000
C2095       C  0.00913486  0.38591399  0.29549613    -0.02100
C2096       C  0.03401247  0.41693132  0.30315199     0.07600
C2097       C  0.04643315  0.41352480  0.32354499    -0.02200
C2098       C  0.03323333  0.38054840  0.33568237    -0.02200
C2099       C  0.00221516  0.35554676  0.32907360     0.07700
C2100       C  0.98978655  0.35868863  0.30893506    -0.02400
Br2101     Br  0.94459372  0.32784338  0.29987958    -0.01000
Br2102     Br  0.00335812  0.37660098  0.26691232    -0.01000
Br2103     Br  0.05699387  0.36975358  0.36154950    -0.01000
Br2104     Br  0.08109630  0.45273849  0.33577360    -0.01000
C2105       C  0.89658567  0.09626958  0.44271804    -0.02100
C2106       C  0.86074585  0.10224538  0.45313270     0.07600
C2107       C  0.83957491  0.13807781  0.44970454    -0.02200
C2108       C  0.85150828  0.16508161  0.43416823    -0.02200
C2109       C  0.88746813  0.15932951  0.42382433     0.07700
C2110       C  0.91075315  0.12565469  0.42862254    -0.02400
Br2111     Br  0.96263853  0.12078852  0.41660655    -0.01000
Br2112     Br  0.92686275  0.04876079  0.44841624    -0.01000
Br2113     Br  0.81868647  0.21039798  0.42726284    -0.01000
Br2114     Br  0.79683018  0.15354400  0.46731633    -0.01000
C2115       C  0.88747610  0.39725167  0.42206791    -0.02100
C2116       C  0.91740392  0.36949007  0.42636237     0.07600
C2117       C  0.93802945  0.37431271  0.44465424    -0.02200
C2118       C  0.92316300  0.40005451  0.45993693    -0.02200
C2119       C  0.89253577  0.42702080  0.45576219     0.07700
C2120       C  0.87947307  0.42894139  0.43552114    -0.02400
Br2121     Br  0.85342197  0.47548269  0.42503144    -0.01000
Br2122     Br  0.85424661  0.39029402  0.39884087    -0.01000
Br2123     Br  0.94640193  0.40016544  0.48603216    -0.01000
Br2124     Br  0.98692739  0.34674364  0.44860270    -0.01000
N2125       N  0.91716211  0.76328096  0.40456252    -0.36900
N2126       N  0.95227060  0.82034235  0.37742804    -0.57400
N2127       N  0.95819337  0.75591890  0.34591487    -0.36800
N2128       N  0.92442451  0.69901793  0.37362153    -0.57400
C2129       C  0.92090297  0.79495106  0.41739885     0.26700
C2130       C  0.91198441  0.72921461  0.41597810     0.26700
C2131       C  0.98393667  0.78473938  0.33901371     0.26700
C2132       C  0.96749380  0.72089499  0.33655000     0.26700
C2133       C  0.94084720  0.84710554  0.39169124     0.35400
C2134       C  0.96314122  0.84233192  0.36079130     0.35400
C2135       C  0.90362221  0.67873227  0.38819169     0.35400
C2136       C  0.92382405  0.67558027  0.35697809     0.35400
C2137       C  0.91648667  0.78069746  0.43718560    -0.22100
C2138       C  0.91246866  0.73929671  0.43632201    -0.22100
C2139       C  0.00962780  0.76802915  0.32494773    -0.22100
C2140       C  0.99914134  0.72773719  0.32333901    -0.22100
C2141       C  0.94588388  0.88637905  0.38423002    -0.23200
C2142       C  0.95878079  0.88333925  0.36452475    -0.23200
C2143       C  0.88913430  0.64235820  0.38068368    -0.23200
C2144       C  0.90215589  0.64029991  0.36088959    -0.23200
C2145       C  0.92696409  0.83630812  0.41151224    -0.18500
C2146       C  0.90177261  0.69012686  0.40873628    -0.18500
C2147       C  0.94778960  0.68308669  0.33961189    -0.18500
C2148       C  0.98207861  0.82651978  0.34338105    -0.18500
H2149       H  0.91586611  0.79786051  0.45098824     0.14400
H2150       H  0.90820041  0.71915676  0.44929741     0.14400
H2151       H  0.03296334  0.78352590  0.31637891     0.14400
H2152       H  0.01322669  0.70601408  0.31358066     0.14400
H2153       H  0.94088509  0.91445223  0.39205992     0.12700
H2154       H  0.96576415  0.90866044  0.35439898     0.12700
H2155       H  0.87235072  0.61896754  0.38886687     0.12700
H2156       H  0.89766821  0.61507422  0.35082264     0.12700
H2157       H  0.91317515  0.76508878  0.38902183     0.25900
H2158       H  0.93319633  0.76124760  0.35477270     0.25900
N2159       N  0.68982555  0.75669212  0.34995700    -0.36900
N2160       N  0.68012402  0.81061057  0.38151464    -0.57400
N2161       N  0.67986170  0.74152546  0.41219513    -0.36800
N2162       N  0.69282900  0.68737550  0.37932535    -0.57400
C2163       C  0.69514429  0.79226969  0.33951108     0.26700
C2164       C  0.70531688  0.72698367  0.33864833     0.26700
C2165       C  0.68887283  0.77378264  0.42376705     0.26700
C2166       C  0.69047651  0.70759827  0.42256665     0.26700
C2167       C  0.67082400  0.83662754  0.36631598     0.35400
C2168       C  0.67308170  0.82970828  0.39906973     0.35400
C2169       C  0.68927752  0.66768841  0.36160463     0.35400
C2170       C  0.68380423  0.65999257  0.39432124     0.35400
C2171       C  0.71480085  0.78509350  0.32138576    -0.22100
C2172       C  0.72107930  0.74385418  0.32079341    -0.22100
C2173       C  0.70337680  0.75997925  0.44213781    -0.22100
C2174       C  0.70439136  0.71832737  0.44135245    -0.22100
C2175       C  0.65674604  0.87216402  0.37434351    -0.23200
C2176       C  0.65969075  0.86843867  0.39497920    -0.23200
C2177       C  0.67796533  0.62756840  0.36537093    -0.23200
C2178       C  0.67488041  0.62263597  0.38609729    -0.23200
C2179       C  0.67986275  0.83018828  0.34553656    -0.18500
C2180       C  0.69810402  0.68491575  0.34216797    -0.18500
C2181       C  0.68861617  0.66734075  0.41526312    -0.18500
C2182       C  0.68545231  0.81545392  0.41817808    -0.18500
H2183       H  0.72253249  0.80703261  0.30955417     0.14400
H2184       H  0.73400473  0.72774864  0.30821579     0.14400
H2185       H  0.71297940  0.77810392  0.45472725     0.14400
H2186       H  0.71513458  0.69836036  0.45307320     0.14400
H2187       H  0.64758529  0.89902925  0.36627249     0.12700
H2188       H  0.65355140  0.89227253  0.40554327     0.12700
H2189       H  0.67331896  0.60401862  0.35437151     0.12700
H2190       H  0.66769812  0.59465222  0.39422657     0.12700
H2191       H  0.67084474  0.75155485  0.36232484     0.25900
H2192       H  0.66606660  0.74278775  0.39827474     0.25900
O2193       O  0.85323943  0.92485387  0.48665692    -0.80400
O2194       O  0.84727762  0.57508324  0.52760040    -0.80400
O2195       O  0.82033573  0.54482623  0.46135044    -0.80400
O2196       O  0.85035731  0.98737918  0.54463906    -0.80400
O2197       O  0.85283385  0.57316172  0.48589477    -0.80500
O2198       O  0.84599371  0.92947162  0.52890239    -0.80400
O2199       O  0.80918069  0.55047437  0.55194643    -0.80400
O2200       O  0.85644566  0.98149335  0.47043337    -0.80400
C2201       C  0.86804183  0.94602755  0.47230912     1.09300
C2202       C  0.83624823  0.57470525  0.54610068     1.09200
C2203       C  0.84493722  0.57120583  0.46737807     1.09300
C2204       C  0.86013861  0.95099909  0.54308236     1.09200
O2205       O  0.75908135  0.93364513  0.52316176    -0.80400
O2206       O  0.76800137  0.57580212  0.48297267    -0.80500
O2207       O  0.78585592  0.96492776  0.45414461    -0.80400
O2208       O  0.74249780  0.51512502  0.53316250    -0.80400
O2209       O  0.76175016  0.57617668  0.52422966    -0.80400
O2210       O  0.76791677  0.93325927  0.48292002    -0.80400
O2211       O  0.78069014  0.95545211  0.55133690    -0.80400
O2212       O  0.74585724  0.51469050  0.47840843    -0.80400
Co2213     Co  0.80796721  0.93854421  0.50555888     1.51500
Co2214     Co  0.80807630  0.56916834  0.50521373     1.51700
Co2215     Co  0.80125648  0.49508608  0.47696082     1.51600
Co2216     Co  0.79854735  0.50294345  0.53504569     1.51500
O2217       O  0.81276116  0.50509511  0.50556878    -1.42300
C2218       C  0.76006985  0.93039243  0.54217072     1.09200
C2219       C  0.74366432  0.55221490  0.47451815     1.09300
C2220       C  0.76771108  0.93615426  0.46351500     1.09300
C2221       C  0.73649938  0.55250139  0.53275014     1.09200
N2222       N  0.90335457  0.76181225  0.61099529    -0.36900
N2223       N  0.91366758  0.69617688  0.64130413    -0.57400
N2224       N  0.92100407  0.75671970  0.67303977    -0.36800
N2225       N  0.91007539  0.82194730  0.64262332    -0.57400
C2226       C  0.89513864  0.72925736  0.59937609     0.26700
C2227       C  0.89729617  0.79579816  0.59966661     0.26700
C2228       C  0.93366636  0.72348608  0.68331567     0.26700
C2229       C  0.92949164  0.78984718  0.68431342     0.26700
C2230       C  0.90460500  0.67298253  0.62521167     0.35400
C2231       C  0.92234643  0.67062286  0.65678722     0.35400
C2232       C  0.90581398  0.84790049  0.62672722     0.35400
C2233       C  0.91072480  0.84466475  0.65954498     0.35400
C2234       C  0.88544708  0.74290627  0.58011940    -0.22100
C2235       C  0.88637897  0.78450739  0.58038692    -0.22100
C2236       C  0.44852800  0.73582113  0.70163677    -0.22100
C2237       C  0.44666162  0.77729668  0.70207320    -0.22100
C2238       C  0.90695684  0.63233537  0.63067785    -0.23200
C2239       C  0.91935149  0.63089538  0.65033257    -0.23200
C2240       C  0.90471027  0.88732597  0.63368816    -0.23200
C2241       C  0.90504422  0.88501610  0.65434267    -0.23200
C2242       C  0.89466043  0.68750750  0.60555466    -0.18500
C2243       C  0.90013479  0.83682978  0.60617898    -0.18500
C2244       C  0.92293025  0.83131879  0.67902997    -0.18500
C2245       C  0.93424270  0.68247392  0.67645195    -0.18500
H2246       H  0.87774623  0.72487557  0.56716342     0.14400
H2247       H  0.87932838  0.80409221  0.56775708     0.14400
H2248       H  0.46023469  0.71699627  0.71355205     0.14400
H2249       H  0.45668828  0.79586798  0.71437153     0.14400
H2250       H  0.90126394  0.60618227  0.62140047     0.12700
H2251       H  0.92511719  0.60347824  0.65885234     0.12700
H2252       H  0.90275345  0.91518178  0.62496984     0.12700
H2253       H  0.90405821  0.91082284  0.66426113     0.12700
H2254       H  0.91359569  0.76073145  0.62560783     0.25900
H2255       H  0.90579050  0.75683419  0.65959580     0.25900
N2256       N  0.65232780  0.73348074  0.65734472    -0.36900
N2257       N  0.66162194  0.67091007  0.62702308    -0.57400
N2258       N  0.66663726  0.73318356  0.59508160    -0.36800
N2259       N  0.65803452  0.79585376  0.62568669    -0.57400
C2260       C  0.65145231  0.70053321  0.66987756     0.26700
C2261       C  0.64701066  0.76678547  0.66879583     0.26700
C2262       C  0.67888558  0.70011290  0.58493082     0.26700
C2263       C  0.68007450  0.76630344  0.58445915     0.26700
C2264       C  0.65697089  0.64629736  0.64349219     0.35400
C2265       C  0.65933768  0.64702338  0.61058979     0.35400
C2266       C  0.64706422  0.81984703  0.64109833     0.35400
C2267       C  0.66167600  0.81996764  0.60907867     0.35400
C2268       C  0.64583028  0.71337101  0.68966259    -0.22100
C2269       C  0.64353983  0.75493468  0.68899633    -0.22100
C2270       C  0.69907464  0.71257729  0.56739871    -0.22100
C2271       C  0.69915590  0.75401741  0.56689700    -0.22100
C2272       C  0.65349968  0.60634883  0.63727281    -0.23200
C2273       C  0.65170904  0.60723826  0.61664684    -0.23200
C2274       C  0.64303093  0.85937722  0.63412764    -0.23200
C2275       C  0.65334763  0.85965495  0.61400892    -0.23200
C2276       C  0.65321446  0.65911171  0.66397815    -0.18500
C2277       C  0.64241776  0.80731449  0.66158206    -0.18500
C2278       C  0.67679904  0.80748678  0.59019386    -0.18500
C2279       C  0.67151948  0.65894605  0.59071440    -0.18500
H2280       H  0.64267121  0.69485709  0.70326613     0.14400
H2281       H  0.63861141  0.77411001  0.70193492     0.14400
H2282       H  0.71207121  0.69400173  0.55584963     0.14400
H2283       H  0.71254626  0.77289374  0.55501993     0.14400
H2284       H  0.65126016  0.57900962  0.64647058     0.12700
H2285       H  0.64854303  0.58084521  0.60722396     0.12700
H2286       H  0.63491661  0.88572188  0.64272697     0.12700
H2287       H  0.65498228  0.88635036  0.60432632     0.12700
H2288       H  0.65436776  0.73315847  0.64178664     0.25900
H2289       H  0.64795861  0.73303258  0.60771724     0.25900
O2290       O  0.55062115  0.98741965  0.29879939    -0.80400
O2291       O  0.59926652  0.01101421  0.21091242    -0.80400
O2292       O  0.98047784  0.97416666  0.24847379    -0.80400
O2293       O  0.64104532  0.96079432  0.27124659    -0.80400
O2294       O  0.52940231  0.97881892  0.22630526    -0.80500
O2295       O  0.62920425  0.99849893  0.29757556    -0.80400
O2296       O  0.62417594  0.96771453  0.23178841    -0.80400
O2297       O  0.04302998  0.95187059  0.27139651    -0.80400
C2298       C  0.04407195  0.95351132  0.29045774     1.09300
C2299       C  0.61901261  0.97934778  0.21385186     1.09200
C2300       C  0.99388911  0.96575888  0.23104724     1.09300
C2301       C  0.64067600  0.96503911  0.29018060     1.09200
O2302       O  0.61645990  0.57961579  0.27949290    -0.80400
O2303       O  0.52992781  0.55486347  0.21088938    -0.80500
O2304       O  0.99745632  0.52399549  0.28080662    -0.80400
O2305       O  0.65043290  0.55316890  0.23147705    -0.80400
O2306       O  0.59388885  0.58555289  0.23122632    -0.80400
O2307       O  0.54123229  0.57160552  0.28296236    -0.80400
O2308       O  0.66849715  0.54560742  0.27217470    -0.80400
O2309       O  0.00381767  0.55163087  0.24183576    -0.80400
Co2310     Co  0.58424385  0.03431858  0.28805007     1.51500
Co2311     Co  0.56178919  0.03373556  0.23161666     1.51700
Co2312     Co  0.02748786  0.00059823  0.25648176     1.51600
Co2313     Co  0.64236524  0.00692384  0.25194718     1.51500
O2314       O  0.58447239  0.01890188  0.25870120    -1.42300
C2315       C  0.65288934  0.57712443  0.27956514     1.09200
C2316       C  0.00178121  0.56271690  0.22298545     1.09300
C2317       C  0.00741744  0.55879128  0.28721768     1.09300
C2318       C  0.63048322  0.58414380  0.22654489     1.09200
O2319       O  0.97080115  0.72056116  0.99160634    -0.80400
O2320       O  0.63278524  0.72754577  0.02409209    -0.80400
O2321       O  0.59952624  0.69698788  0.98382479    -0.80400
O2322       O  0.54625332  0.68856794  0.03352917    -0.80400
O2323       O  0.64024665  0.74829968  0.98500605    -0.80500
O2324       O  0.98877768  0.71754760  0.03145917    -0.80400
O2325       O  0.60409576  0.72440850  0.05443215    -0.80400
O2326       O  0.52133935  0.68317767  0.98516586    -0.80400
C2327       C  0.98478496  0.68783539  0.98507613     1.09300
C2328       C  0.63334227  0.71693978  0.04303757     1.09200
C2329       C  0.63254181  0.71237353  0.97929184     1.09300
C2330       C  0.00993891  0.68915681  0.03818711     1.09200
O2331       O  0.00628828  0.80484276  0.02959875    -0.80400
O2332       O  0.59375498  0.82045859  0.98884668    -0.80500
O2333       O  0.50908297  0.76121281  0.96494362    -0.80400
O2334       O  0.60325929  0.79910312  0.03762435    -0.80400
O2335       O  0.65286481  0.80546493  0.01569317    -0.80400
O2336       O  0.99327476  0.80393606  0.98873079    -0.80400
O2337       O  0.53232570  0.76493614  0.05177825    -0.80400
O2338       O  0.58700334  0.77679609  0.96425047    -0.80400
Co2339     Co  0.99395136  0.76206006  0.01017663     1.51500
Co2340     Co  0.60797361  0.77536341  0.00723035     1.51700
Co2341     Co  0.55452077  0.73004030  0.97638643     1.51600
Co2342     Co  0.57382067  0.74236292  0.03267237     1.51500
O2343       O  0.55250509  0.75266078  0.00466416    -1.42300
C2344       C  0.00873947  0.79303327  0.04768372     1.09200
C2345       C  0.59660713  0.81227846  0.97016141     1.09300
C2346       C  0.49056950  0.79242944  0.97057453     1.09300
C2347       C  0.63853834  0.81314401  0.03310282     1.09200
N2348       N  0.80076591  0.88559941  0.85496644    -0.36900
N2349       N  0.85890219  0.87925367  0.88490738    -0.57400
N2350       N  0.79805132  0.87555632  0.91733025    -0.36800
N2351       N  0.74052323  0.88305805  0.88618808    -0.57400
C2352       C  0.83286201  0.87812393  0.84337833     0.26700
C2353       C  0.76890596  0.87508380  0.84420867     0.26700
C2354       C  0.82872217  0.85781852  0.92647590     0.26700
C2355       C  0.76463862  0.86345140  0.92746458     0.26700
C2356       C  0.88261483  0.89111590  0.86912600     0.35400
C2357       C  0.88111704  0.87998949  0.90160439     0.35400
C2358       C  0.71899902  0.89333089  0.87001086     0.35400
C2359       C  0.71836226  0.89099196  0.90280146     0.35400
C2360       C  0.82150640  0.86240235  0.82499136    -0.22100
C2361       C  0.78092590  0.85984047  0.82563529    -0.22100
C2362       C  0.81474133  0.83502063  0.94303511    -0.22100
C2363       C  0.77422676  0.83860001  0.94365452    -0.22100
C2364       C  0.92007204  0.90000808  0.87586787    -0.23200
C2365       C  0.91926553  0.89245822  0.89644526    -0.23200
C2366       C  0.68309686  0.90846126  0.87639326    -0.23200
C2367       C  0.68275443  0.90709377  0.89717557    -0.23200
C2368       C  0.87163809  0.88884803  0.84860689    -0.18500
C2369       C  0.72992601  0.88486735  0.84974735    -0.18500
C2370       C  0.72603889  0.87467045  0.92216130    -0.18500
C2371       C  0.86893813  0.86303340  0.92054198    -0.18500
H2372       H  0.84043648  0.85443127  0.81234602     0.14400
H2373       H  0.76234250  0.85007899  0.81342341     0.14400
H2374       H  0.83191481  0.81746843  0.95351580     0.14400
H2375       H  0.75414465  0.82422549  0.95460148     0.14400
H2376       H  0.94576363  0.90862697  0.86678604     0.12700
H2377       H  0.94419763  0.89445000  0.90636456     0.12700
H2378       H  0.65907890  0.91818944  0.86709633     0.12700
H2379       H  0.65817328  0.91459419  0.90700668     0.12700
H2380       H  0.80060025  0.90294990  0.86802769     0.25900
H2381       H  0.80009683  0.89699168  0.90559296     0.25900
N2382       N  0.80881893  0.62507305  0.92006760    -0.36900
N2383       N  0.75170098  0.61074081  0.88798718    -0.57400
N2384       N  0.81527298  0.60057341  0.85912379    -0.36800
N2385       N  0.87259531  0.61236136  0.89191860    -0.57400
C2386       C  0.77748418  0.64760144  0.92528825     0.26700
C2387       C  0.84037421  0.64190916  0.92913668     0.26700
C2388       C  0.78487642  0.58810387  0.84747731     0.26700
C2389       C  0.84920697  0.59200909  0.84911279     0.26700
C2390       C  0.72754387  0.61457348  0.90432621     0.35400
C2391       C  0.72964813  0.59639153  0.87277400     0.35400
C2392       C  0.89445183  0.62299855  0.90803479     0.35400
C2393       C  0.89707899  0.61377041  0.87555764     0.35400
C2394       C  0.78959653  0.68007554  0.93691792    -0.22100
C2395       C  0.82959373  0.67695288  0.93897732    -0.22100
C2396       C  0.79995134  0.57288597  0.82949911    -0.22100
C2397       C  0.84038044  0.57538741  0.83052839    -0.22100
C2398       C  0.69007282  0.60068079  0.89986044    -0.23200
C2399       C  0.69104340  0.59051913  0.87970787    -0.23200
C2400       C  0.93228376  0.63390571  0.90152490    -0.23200
C2401       C  0.93425303  0.62686722  0.88112353    -0.23200
C2402       C  0.73789344  0.63687799  0.92164708    -0.18500
C2403       C  0.87889738  0.62690628  0.92800062    -0.18500
C2404       C  0.88799929  0.59876208  0.85619936    -0.18500
C2405       C  0.74398612  0.58799218  0.85286620    -0.18500
H2406       H  0.77139274  0.70336774  0.94337397     0.14400
H2407       H  0.84852629  0.69780089  0.94697005     0.14400
H2408       H  0.78357762  0.56023632  0.81710377     0.14400
H2409       H  0.86096021  0.56565712  0.81894575     0.14400
H2410       H  0.66415430  0.60063856  0.90965001     0.11100
H2411       H  0.66598741  0.58007322  0.87123292     0.12700
H2412       H  0.95590621  0.64673249  0.91026150     0.12700
H2413       H  0.96007649  0.63121986  0.87142449     0.12700
H2414       H  0.80815142  0.59735250  0.91261360     0.25900
H2415       H  0.81351115  0.61546467  0.87281178     0.25900
O2416       O  0.59790498  0.91817033  0.73723767    -0.80400
O2417       O  0.60301309  0.56205972  0.78469686    -0.80400
O2418       O  0.60266791  0.51051176  0.72705128    -0.80400
O2419       O  0.57457039  0.93641095  0.80353400    -0.80400
O2420       O  0.59870583  0.56668017  0.74287620    -0.80500
O2421       O  0.60519386  0.91174169  0.77719082    -0.80400
O2422       O  0.61142084  0.50196159  0.79540792    -0.80400
O2423       O  0.56006261  0.95013245  0.71610792    -0.80400
C2424       C  0.58591221  0.92357234  0.71953629     1.09300
C2425       C  0.62192230  0.53821642  0.79572355     1.09200
C2426       C  0.61309015  0.54658468  0.72845310     1.09300
C2427       C  0.60315002  0.91700791  0.79593159     1.09200
O2428       O  0.52016824  0.90725899  0.78270239    -0.80400
O2429       O  0.51332922  0.55746519  0.74509491    -0.80500
O2430       O  0.49312720  0.97699351  0.73985719    -0.80400
O2431       O  0.54127095  0.51073914  0.81491001    -0.80400
O2432       O  0.51845728  0.54609306  0.78891682    -0.80400
O2433       O  0.51328851  0.91472584  0.74187778    -0.80400
O2434       O  0.50113057  0.96865227  0.78662556    -0.80400
O2435       O  0.52930129  0.53312259  0.71502635    -0.80400
Co2436     Co  0.55977294  0.91773773  0.75998612     1.51500
Co2437     Co  0.55953585  0.54845712  0.76498905     1.51700
Co2438     Co  0.54849250  0.99653362  0.73513650     1.51600
Co2439     Co  0.55635943  0.98780534  0.78989371     1.51500
O2440       O  0.56745494  0.98080348  0.76159662    -1.42300
C2441       C  0.49427869  0.93129438  0.78900669     1.09200
C2442       C  0.51204897  0.55966423  0.72549412     1.09300
C2443       C  0.48782728  0.93974685  0.73627543     1.09300
C2444       C  0.51812910  0.53723378  0.80818206     1.09200
N2445       N  0.82501539  0.64774656  0.10162597    -0.36900
N2446       N  0.87733455  0.62543791  0.13344670    -0.57400
N2447       N  0.81296157  0.63596549  0.16370472    -0.36800
N2448       N  0.75953168  0.65341557  0.13165198    -0.57400
C2449       C  0.85748127  0.64066218  0.09001329     0.26700
C2450       C  0.79419272  0.65218234  0.08918114     0.26700
C2451       C  0.84091065  0.61930264  0.17535706     0.26700
C2452       C  0.77752138  0.62932377  0.17328920     0.26700
C2453       C  0.90326522  0.62235709  0.11769981     0.35400
C2454       C  0.89758469  0.61773701  0.15044640     0.35400
C2455       C  0.74351225  0.67111385  0.11530468     0.35400
C2456       C  0.73710113  0.66355503  0.14791207     0.35400
C2457       C  0.84707672  0.64190917  0.06978144    -0.22100
C2458       C  0.80709699  0.64735971  0.06931348    -0.22100
C2459       C  0.82312242  0.60316667  0.19287389    -0.22100
C2460       C  0.78330672  0.60744022  0.19103764    -0.22100
C2461       C  0.93939819  0.61011941  0.12470548    -0.23200
C2462       C  0.93599095  0.60770992  0.14537682    -0.23200
C2463       C  0.71077816  0.69285310  0.12123366    -0.23200
C2464       C  0.70728222  0.68886022  0.14197346    -0.23200
C2465       C  0.89606117  0.63332331  0.09721237    -0.18500
C2466       C  0.75593552  0.66511392  0.09496283    -0.18500
C2467       C  0.74081025  0.64577219  0.16738849    -0.18500
C2468       C  0.88187040  0.61717914  0.17049978    -0.18500
H2469       H  0.86586455  0.63925107  0.05651568     0.14400
H2470       H  0.78997330  0.64981876  0.05571335     0.14400
H2471       H  0.83689819  0.58856536  0.20558225     0.14400
H2472       H  0.76142163  0.59655757  0.20201296     0.14400
H2473       H  0.96586158  0.60459366  0.11586845     0.12700
H2474       H  0.95919979  0.59906507  0.15547537     0.12700
H2475       H  0.69094399  0.70909645  0.11155957     0.12700
H2476       H  0.68420115  0.70116810  0.15144793     0.12700
H2477       H  0.82447223  0.65374877  0.11704853     0.25900
H2478       H  0.81870976  0.65455399  0.15104467     0.25900
N2479       N  0.81072549  0.90912915  0.16134321    -0.36900
N2480       N  0.75800860  0.90218000  0.12574327    -0.57400
N2481       N  0.82238468  0.87299516  0.10205709    -0.36800
N2482       N  0.87600404  0.88444916  0.13665213    -0.57400
C2483       C  0.77810125  0.92740939  0.16839659     0.26700
C2484       C  0.84071716  0.91877236  0.17384787     0.26700
C2485       C  0.79439999  0.87175095  0.08761940     0.26700
C2486       C  0.85773625  0.86710969  0.09293918     0.26700
C2487       C  0.73135791  0.91185954  0.14022363     0.35400
C2488       C  0.73725684  0.89239500  0.10911492     0.35400
C2489       C  0.89286720  0.88291664  0.15502725     0.35400
C2490       C  0.89954017  0.86380330  0.12397029     0.35400
C2491       C  0.78695374  0.94792307  0.18597749    -0.22100
C2492       C  0.82630223  0.94243129  0.18940727    -0.22100
C2493       C  0.81230157  0.86400270  0.06908099    -0.22100
C2494       C  0.85216112  0.86237512  0.07228932    -0.22100
C2495       C  0.69367243  0.90961088  0.13251751    -0.23200
C2496       C  0.69747962  0.89823014  0.11278402    -0.23200
C2497       C  0.92725286  0.86113202  0.15404313    -0.23200
C2498       C  0.93149034  0.84895657  0.13435158    -0.23200
C2499       C  0.74001146  0.92462474  0.16008042    -0.18500
C2500       C  0.88021342  0.90531713  0.17193028    -0.18500
C2501       C  0.89389491  0.85989659  0.10293358    -0.18500
C2502       C  0.75314067  0.87623415  0.09093643    -0.18500
H2503       H  0.76706777  0.96500371  0.19543205     0.14400
H2504       H  0.84217364  0.95404007  0.20219583     0.14400
H2505       H  0.79833668  0.85957779  0.05468361     0.14400
H2506       H  0.87428625  0.85609292  0.06080603     0.14400
H2507       H  0.66608533  0.91574246  0.14022772     0.12700
H2508       H  0.67339561  0.89382665  0.10251211     0.12700
H2509       H  0.94756593  0.85549078  0.16614956     0.12700
H2510       H  0.95564979  0.83163353  0.12830909     0.12700
H2511       H  0.81107265  0.88802765  0.14983995     0.25900
H2512       H  0.81743749  0.87246620  0.11757151     0.25900
C2513       C  0.66250756  0.52771440  0.82729221    -0.02100
C2514       C  0.65403329  0.55182477  0.80986953     0.07600
C2515       C  0.67528433  0.58913741  0.80714453    -0.02200
C2516       C  0.70430379  0.60105716  0.82119920    -0.02200
C2517       C  0.71458554  0.57491396  0.83729729     0.07700
C2518       C  0.69468487  0.53739859  0.83958114    -0.02400
Br2519     Br  0.71085416  0.49991722  0.86039919    -0.01000
Br2520     Br  0.62600030  0.48659454  0.83770703    -0.01000
Br2521     Br  0.72911116  0.65409538  0.81901041    -0.01000
Br2522     Br  0.66423524  0.62555598  0.78495018    -0.01000
C2523       C  0.96937069  0.53052362  0.83767424    -0.02100
C2524       C  0.98715961  0.55430342  0.82176991     0.07600
C2525       C  0.97350825  0.59407144  0.81811718    -0.02200
C2526       C  0.94072443  0.60848783  0.82904912    -0.02200
C2527       C  0.92174302  0.58368425  0.84388265     0.07700
C2528       C  0.93661513  0.54513284  0.84845589    -0.02400
Br2529     Br  0.91177894  0.51230412  0.86980931    -0.01000
Br2530     Br  0.98871760  0.47775694  0.84525978    -0.01000
Br2531     Br  0.92224121  0.66264766  0.82423557    -0.01000
Br2532     Br  0.50122915  0.63056037  0.79928376    -0.01000
C2533       C  0.70443825  0.91716913  0.81789757    -0.02100
C2534       C  0.69968451  0.88825224  0.83380066     0.07600
C2535       C  0.66445578  0.86488584  0.83540747    -0.02200
C2536       C  0.63202620  0.87524417  0.82368383    -0.02200
C2537       C  0.63660333  0.90466203  0.80819121     0.07700
C2538       C  0.67400041  0.92277203  0.80417089    -0.02400
Br2539     Br  0.68393838  0.95618296  0.78021290    -0.01000
Br2540     Br  0.75081993  0.95188684  0.81545148    -0.01000
Br2541     Br  0.58181486  0.84882435  0.82876067    -0.01000
Br2542     Br  0.66074450  0.81830540  0.85330621    -0.01000
C2543       C  0.92718208  0.94309904  0.80510959    -0.02100
C2544       C  0.95892013  0.91665345  0.80138594     0.07600
C2545       C  0.95797781  0.87798992  0.81129705    -0.02200
C2546       C  0.93002460  0.86923993  0.82694258    -0.02200
C2547       C  0.90119437  0.89761782  0.83197837     0.07700
C2548       C  0.89891200  0.93373915  0.82044944    -0.02400
Br2549     Br  0.85735082  0.97119375  0.82611449    -0.01000
Br2550     Br  0.91984948  0.99099554  0.78840989    -0.01000
Br2551     Br  0.93089975  0.81812246  0.84160173    -0.01000
Br2552     Br  0.49235436  0.83505399  0.80297745    -0.01000
C2553       C  0.73338735  0.70779145  0.06562361    -0.02100
C2554       C  0.72717002  0.67422640  0.07881207     0.07600
C2555       C  0.69283103  0.64981509  0.07701068    -0.02200
C2556       C  0.66270137  0.66211509  0.06407566    -0.02200
C2557       C  0.66800120  0.69714883  0.05181189     0.07700
C2558       C  0.70519242  0.71708695  0.05110064    -0.02400
Br2559     Br  0.71946800  0.75546373  0.02993928    -0.01000
Br2560     Br  0.77905448  0.74307959  0.06825589    -0.01000
Br2561     Br  0.61475401  0.63016277  0.06239854    -0.01000
Br2562     Br  0.68690199  0.59989799  0.09244650    -0.01000
C2563       C  0.96595153  0.63070974  0.05062150    -0.02100
C2564       C  0.99228984  0.66292755  0.05480513     0.07600
C2565       C  0.99198381  0.67830481  0.07465404    -0.02200
C2566       C  0.95957949  0.67073850  0.08777775    -0.02200
C2567       C  0.93126052  0.64040797  0.08314294     0.07700
C2568       C  0.93777270  0.61721016  0.06550881    -0.02400
Br2569     Br  0.90948704  0.56660486  0.06214354    -0.01000
Br2570     Br  0.96939496  0.60473878  0.02478926    -0.01000
Br2571     Br  0.95381358  0.70448444  0.11139810    -0.01000
Br2572     Br  0.53692588  0.70686197  0.08500305    -0.01000
C2573       C  0.66520760  0.81988711  0.06873904    -0.02100
C2574       C  0.66371288  0.83482069  0.04850985     0.07600
C2575       C  0.69151000  0.86582582  0.04268704    -0.02200
C2576       C  0.71917199  0.88110612  0.05665893    -0.02200
C2577       C  0.72420698  0.86113580  0.07546063     0.07700
C2578       C  0.69773833  0.82914129  0.08091854    -0.02400
Br2579     Br  0.70562983  0.79806911  0.10551985    -0.01000
Br2580     Br  0.62141789  0.79130601  0.08152915    -0.01000
Br2581     Br  0.74862872  0.93052798  0.05041302    -0.01000
Br2582     Br  0.69138171  0.88934659  0.01599328    -0.01000
C2583       C  0.98886803  0.84694997  0.07209227    -0.02100
C2584       C  0.98119389  0.80894030  0.06329363     0.07600
C2585       C  0.94547543  0.78782231  0.06855315    -0.02200
C2586       C  0.92044179  0.80239207  0.08369889    -0.02200
C2587       C  0.92617937  0.84174658  0.09082592     0.07700
C2588       C  0.96072032  0.86401292  0.08531163    -0.02400
Br2589     Br  0.96880789  0.91801477  0.09543423    -0.01000
Br2590     Br  0.03670266  0.87663406  0.06498234    -0.01000
Br2591     Br  0.87639381  0.76931178  0.09404769    -0.01000
Br2592     Br  0.92374428  0.74465601  0.05292075    -0.01000
C2593       C  0.62815509  0.82448654  0.93627209    -0.02100
C2594       C  0.61979871  0.83932160  0.95567352     0.07600
C2595       C  0.64264435  0.87255593  0.96232712    -0.02200
C2596       C  0.67839570  0.88360245  0.95199898    -0.02200
C2597       C  0.69087801  0.86155780  0.93489561     0.07700
C2598       C  0.66519304  0.83171167  0.92719057    -0.02400
Br2599     Br  0.68098792  0.79931566  0.90460678    -0.01000
Br2600     Br  0.58582001  0.80356530  0.92026172    -0.01000
Br2601     Br  0.70987719  0.92876163  0.96095542    -0.01000
Br2602     Br  0.61996586  0.90779865  0.98215267    -0.01000
C2603       C  0.91528152  0.80736618  0.92860016    -0.02100
C2604       C  0.90001536  0.84540295  0.93344684     0.07600
C2605       C  0.91580552  0.86741966  0.94952596    -0.02200
C2606       C  0.94676850  0.85144204  0.96096344    -0.02200
C2607       C  0.96172896  0.81228757  0.95670373     0.07700
C2608       C  0.94578753  0.79068240  0.94002749    -0.02400
Br2609     Br  0.96334586  0.73739520  0.93230207    -0.01000
Br2610     Br  0.89323476  0.77763723  0.90624862    -0.01000
Br2611     Br  0.96890794  0.88521156  0.98176747    -0.01000
Br2612     Br  0.89474043  0.91994942  0.95561173    -0.01000
C2613       C  0.68740039  0.66459997  0.97147413    -0.02100
C2614       C  0.65816875  0.69087232  0.96477606     0.07600
C2615       C  0.64997937  0.69251368  0.94392437    -0.02200
C2616       C  0.67682247  0.67735857  0.92965295    -0.02200
C2617       C  0.70718853  0.65197452  0.93618446     0.07700
C2618       C  0.70992940  0.64306772  0.95718541    -0.02400
Br2619     Br  0.74211906  0.59925516  0.96623779    -0.01000
Br2620     Br  0.69424088  0.65573686  0.00009345    -0.01000
Br2621     Br  0.67202529  0.69369155  0.90160006    -0.01000
Br2622     Br  0.59877136  0.70717788  0.93493597    -0.01000
C2623       C  0.94458939  0.61498328  0.94598673    -0.02100
C2624       C  0.90506839  0.62741335  0.94661699     0.07600
C2625       C  0.89128896  0.63911119  0.96600901    -0.02200
C2626       C  0.91759089  0.65713115  0.97956444    -0.02200
C2627       C  0.95834039  0.65841150  0.97478334     0.07700
C2628       C  0.97201383  0.63323202  0.95894610    -0.02400
Br2629     Br  0.52717849  0.62431806  0.95360074    -0.01000
Br2630     Br  0.95879779  0.56658024  0.93159699    -0.01000
Br2631     Br  0.89735475  0.67815511  0.00481752    -0.01000
Br2632     Br  0.84111996  0.61945076  0.97650774    -0.01000
C2633       C  0.90708549  0.90559197  0.20771107    -0.02100
C2634       C  0.91073665  0.91756064  0.18718579     0.07600
C2635       C  0.94434908  0.94072936  0.18091626    -0.02200
C2636       C  0.97424203  0.95033482  0.19474635    -0.02200
C2637       C  0.96809410  0.94373167  0.21594855     0.07700
C2638       C  0.93332243  0.92133261  0.22219280    -0.02400
Br2639     Br  0.91766897  0.91407329  0.25031847    -0.01000
Br2640     Br  0.86617566  0.86692205  0.21597264    -0.01000
Br2641     Br  0.52296859  0.97261113  0.18362564    -0.01000
Br2642     Br  0.94854573  0.96232148  0.15346801    -0.01000
C2643       C  0.65935821  0.92151463  0.20055306    -0.02100
C2644       C  0.64152123  0.95951038  0.19722853     0.07600
C2645       C  0.65225635  0.98182789  0.17954040    -0.02200
C2646       C  0.68688294  0.97293118  0.16883046    -0.02200
C2647       C  0.70627199  0.93667491  0.17303974     0.07700
C2648       C  0.69083685  0.90962705  0.18796556    -0.02400
Br2649     Br  0.71262143  0.85622686  0.19080152    -0.01000
Br2650     Br  0.63928766  0.88403612  0.22113755    -0.01000
Br2651     Br  0.70776030  0.01031114  0.14837057    -0.01000
Br2652     Br  0.61618970  0.51772703  0.16712159    -0.01000
C2653       C  0.93311776  0.55782963  0.21119215    -0.02100
C2654       C  0.96624980  0.58238908  0.21506530     0.07600
C2655       C  0.96808244  0.62194843  0.20673871    -0.02200
C2656       C  0.93838651  0.63492737  0.19351418    -0.02200
C2657       C  0.90959600  0.60674200  0.18693795     0.07700
C2658       C  0.90884948  0.56738473  0.19514398    -0.02400
Br2659     Br  0.87767570  0.52525678  0.18317869    -0.01000
Br2660     Br  0.91299465  0.51961064  0.23093797    -0.01000
Br2661     Br  0.93852608  0.68996198  0.18338003    -0.01000
Br2662     Br  0.50944639  0.65870557  0.21471792    -0.01000
C2663       C  0.66890459  0.62500435  0.17666418    -0.02100
C2664       C  0.70564772  0.64275221  0.18205262     0.07600
C2665       C  0.70989278  0.65398321  0.20251812    -0.02200
C2666       C  0.68482408  0.63632032  0.21770044    -0.02200
C2667       C  0.65005538  0.61510121  0.21244367     0.07700
C2668       C  0.63994653  0.61580354  0.19183386    -0.02400
Br2669     Br  0.58603411  0.10757440  0.18447162    -0.01000
Br2670     Br  0.65802378  0.10905545  0.14932237    -0.01000
Br2671     Br  0.69930444  0.64096258  0.24539614    -0.01000
Br2672     Br  0.75103838  0.69201670  0.20981046    -0.01000
C2673       C  0.61463134  0.59968720  0.67905980    -0.02100
C2674       C  0.64704314  0.62690205  0.68009938     0.07600
C2675       C  0.67418655  0.62154051  0.69596633    -0.02200
C2676       C  0.66483747  0.59418405  0.71218908    -0.02200
C2677       C  0.63250919  0.56720757  0.71064314     0.07700
C2678       C  0.61225921  0.56633906  0.69223578    -0.02400
Br2679     Br  0.58802997  0.51740898  0.68252866    -0.01000
Br2680     Br  0.57220704  0.60727150  0.66029291    -0.01000
Br2681     Br  0.69829981  0.58997060  0.73519841    -0.01000
Br2682     Br  0.72384951  0.65078308  0.69531700    -0.01000
C2683       C  0.65359470  0.86991452  0.68274798    -0.02100
C2684       C  0.62854638  0.83816669  0.67625314     0.07600
C2685       C  0.58953109  0.83552908  0.68362809    -0.02200
C2686       C  0.57675257  0.86188083  0.69868284    -0.02200
C2687       C  0.59997397  0.89600809  0.70368510     0.07700
C2688       C  0.63878866  0.89971536  0.69584865    -0.02400
Br2689     Br  0.67216158  0.94426673  0.70402294    -0.01000
Br2690     Br  0.70803159  0.87214994  0.67393688    -0.01000
Br2691     Br  0.53165331  0.84553013  0.71496888    -0.01000
Br2692     Br  0.55311997  0.79620834  0.67286703    -0.01000
C2693       C  0.51120353  0.62694831  0.70747887    -0.02100
C2694       C  0.49019529  0.59254170  0.71499581     0.07600
C2695       C  0.94930570  0.58886972  0.71123996    -0.02200
C2696       C  0.93042779  0.61901661  0.69951486    -0.02200
C2697       C  0.95278736  0.65090544  0.68997160     0.07700
C2698       C  0.49388653  0.65384723  0.69368546    -0.02400
Br2699     Br  0.52666441  0.69411712  0.67977461    -0.01000
Br2700     Br  0.56214691  0.64041357  0.71793186    -0.01000
Br2701     Br  0.87405683  0.61686985  0.69674051    -0.01000
Br2702     Br  0.91953568  0.54339695  0.72252207    -0.01000
C2703       C  0.91570260  0.86659786  0.71325235    -0.02100
C2704       C  0.93428040  0.86371014  0.69390937     0.07600
C2705       C  0.96320742  0.89331514  0.68829519    -0.02200
C2706       C  0.47030831  0.92646617  0.70084327    -0.02200
C2707       C  0.45868079  0.92457898  0.72143880     0.07700
C2708       C  0.93033134  0.89464570  0.72750130    -0.02400
Br2709     Br  0.91196130  0.89233018  0.75521072    -0.01000
Br2710     Br  0.87126725  0.83182816  0.72046186    -0.01000
Br2711     Br  0.49170734  0.97514266  0.68873823    -0.01000
Br2712     Br  0.99619377  0.88810148  0.66421011    -0.01000
C2713       C  0.89149814  0.60059865  0.56751438    -0.02100
C2714       C  0.85273003  0.60357314  0.56066960     0.07600
C2715       C  0.82831131  0.63375764  0.56841406    -0.02200
C2716       C  0.84069535  0.65795483  0.58444485    -0.02200
C2717       C  0.88029922  0.65716566  0.59050632     0.07700
C2718       C  0.90609343  0.62922586  0.58134539    -0.02400
Br2719     Br  0.96156029  0.63138501  0.58681628    -0.01000
Br2720     Br  0.92409749  0.55723687  0.55811368    -0.01000
Br2721     Br  0.80326604  0.69281658  0.59760477    -0.01000
Br2722     Br  0.78043621  0.64620763  0.55495269    -0.01000
C2723       C  0.86196326  0.89695811  0.59296627    -0.02100
C2724       C  0.89380915  0.87028467  0.59073612     0.07600
C2725       C  0.92046764  0.87694030  0.57416411    -0.02200
C2726       C  0.91187118  0.90563714  0.55873946    -0.02200
C2727       C  0.87904966  0.93073895  0.56077252     0.07700
C2728       C  0.85830230  0.92992376  0.57950275    -0.02400
Br2729     Br  0.82825401  0.97562892  0.58819499    -0.01000
Br2730     Br  0.82098122  0.88761560  0.61332052    -0.01000
Br2731     Br  0.94818935  0.91564809  0.53668283    -0.01000
Br2732     Br  0.96871272  0.84715386  0.57267637    -0.01000
C2733       C  0.70730854  0.59499282  0.58112114    -0.02100
C2734       C  0.68139224  0.62638519  0.57586936     0.07600
C2735       C  0.66658125  0.62723396  0.55598697    -0.02200
C2736       C  0.68466563  0.60355263  0.54103657    -0.02200
C2737       C  0.70750850  0.57019334  0.54683989     0.07700
C2738       C  0.71336706  0.56334585  0.56765549    -0.02400
Br2739     Br  0.73181143  0.51267537  0.57813354    -0.01000
Br2740     Br  0.74042954  0.59759186  0.60463748    -0.01000
Br2741     Br  0.68370063  0.62212481  0.51341782    -0.01000
Br2742     Br  0.62410613  0.66227808  0.54872543    -0.01000
C2743       C  0.75826756  0.86683707  0.56283439    -0.02100
C2744       C  0.73774065  0.89841286  0.55347758     0.07600
C2745       C  0.69640860  0.89908823  0.55520672    -0.02200
C2746       C  0.67598370  0.86777119  0.56599068    -0.02200
C2747       C  0.69716284  0.83901363  0.57723905     0.07700
C2748       C  0.73862383  0.83965310  0.57614143    -0.02400
Br2749     Br  0.76882465  0.80250349  0.59236470    -0.01000
Br2750     Br  0.81118100  0.85538036  0.55445681    -0.01000
Br2751     Br  0.61941254  0.86354701  0.56489966    -0.01000
Br2752     Br  0.66801043  0.94253907  0.54274507    -0.01000
C2753       C  0.70842732  0.60336830  0.30173284    -0.02100
C2754       C  0.67360446  0.60986169  0.29084531     0.07600
C2755       C  0.65203086  0.64548937  0.29471653    -0.02200
C2756       C  0.65846873  0.66719111  0.31233325    -0.02200
C2757       C  0.69173886  0.65962224  0.32397559     0.07700
C2758       C  0.71793109  0.62900777  0.31805824    -0.02400
Br2759     Br  0.76544163  0.62120838  0.33297558    -0.01000
Br2760     Br  0.74352582  0.56077237  0.29420185    -0.01000
Br2761     Br  0.61818379  0.70318646  0.32192377    -0.01000
Br2762     Br  0.61283435  0.66533854  0.27617448    -0.01000
C2763       C  0.64056004  0.88998801  0.29971268    -0.02100
C2764       C  0.65368560  0.93024542  0.30351263     0.07600
C2765       C  0.67888534  0.93627843  0.32012076    -0.02200
C2766       C  0.69145122  0.90287655  0.33198530    -0.02200
C2767       C  0.67367396  0.86395297  0.32997890     0.07700
C2768       C  0.64790698  0.85813010  0.31364201    -0.02400
Br2769     Br  0.61992458  0.80731796  0.31078715    -0.01000
Br2770     Br  0.61134011  0.87733019  0.27574475    -0.01000
Br2771     Br  0.73447773  0.91028953  0.35036117    -0.01000
Br2772     Br  0.69589675  0.99006576  0.32730202    -0.01000
C2773       C  0.73279842  0.61017719  0.42570540    -0.02100
C2774       C  0.69827963  0.63219907  0.42927741     0.07600
C2775       C  0.67282247  0.61894461  0.44547024    -0.02200
C2776       C  0.68438280  0.58758427  0.45912291    -0.02200
C2777       C  0.72122894  0.56914499  0.45672936     0.07700
C2778       C  0.74183067  0.57699127  0.43825725    -0.02400
Br2779     Br  0.77206515  0.53535639  0.42614627    -0.01000
Br2780     Br  0.76918231  0.62524482  0.40385097    -0.01000
Br2781     Br  0.64683048  0.56265693  0.47775821    -0.01000
Br2782     Br  0.62191261  0.64284133  0.44855674    -0.01000
C2783       C  0.74648558  0.84590226  0.43190091    -0.02100
C2784       C  0.70506272  0.84579464  0.43110147     0.07600
C2785       C  0.68363009  0.87430687  0.44236383    -0.02200
C2786       C  0.70399280  0.90593261  0.45205760    -0.02200
C2787       C  0.74540890  0.90557916  0.45259052     0.07700
C2788       C  0.76572004  0.87274130  0.44458266    -0.02400
Br2789     Br  0.81685959  0.85905680  0.45420668    -0.01000
Br2790     Br  0.77766734  0.81023329  0.41541592    -0.01000
Br2791     Br  0.67544714  0.94854534  0.46509986    -0.01000
Br2792     Br  0.62713287  0.86918683  0.44503719    -0.01000
C2793       C  0.98634189  0.62017012  0.33367852    -0.02100
C2794       C  0.95873113  0.64799674  0.32656568     0.07600
C2795       C  0.94324438  0.64312895  0.30702168    -0.02200
C2796       C  0.95616080  0.61121021  0.29452130    -0.02200
C2797       C  0.98397099  0.58338401  0.30164405     0.07700
C2798       C  0.99813654  0.58770744  0.32152582    -0.02400
Br2799     Br  0.53402795  0.54926355  0.33227088    -0.01000
Br2800     Br  0.01126998  0.62905531  0.35937868    -0.01000
Br2801     Br  0.93821859  0.60757026  0.26712203    -0.01000
Br2802     Br  0.90616142  0.68170757  0.29702990    -0.01000
C2803       C  0.00897859  0.88598032  0.29548402    -0.02100
C2804       C  0.03389018  0.91696378  0.30314492     0.07600
C2805       C  0.04631813  0.91352439  0.32353515    -0.02200
C2806       C  0.03310243  0.88054375  0.33566435    -0.02200
C2807       C  0.00206863  0.85556877  0.32905078     0.07700
C2808       C  0.98962404  0.85874844  0.30891708    -0.02400
Br2809     Br  0.94441272  0.82793219  0.29986154    -0.01000
Br2810     Br  0.00316982  0.87671386  0.26689907    -0.01000
Br2811     Br  0.05687425  0.86969847  0.36152418    -0.01000
Br2812     Br  0.08102261  0.95269208  0.33576898    -0.01000
C2813       C  0.89667213  0.59627555  0.44274402    -0.02100
C2814       C  0.86083123  0.60227245  0.45315407     0.07600
C2815       C  0.83965933  0.63809702  0.44970931    -0.02200
C2816       C  0.85159427  0.66507166  0.43416183    -0.02200
C2817       C  0.88755107  0.65929363  0.42381967     0.07700
C2818       C  0.91083615  0.62562859  0.42863197    -0.02400
Br2819     Br  0.96271393  0.62073332  0.41661023    -0.01000
Br2820     Br  0.92695684  0.54878672  0.44847200    -0.01000
Br2821     Br  0.81878686  0.71039190  0.42724194    -0.01000
Br2822     Br  0.79690977  0.65358977  0.46731203    -0.01000
C2823       C  0.88741561  0.89714443  0.42207399    -0.02100
C2824       C  0.91738446  0.86942877  0.42636390     0.07600
C2825       C  0.93802639  0.87429481  0.44464902    -0.02200
C2826       C  0.92315598  0.90004730  0.45992777    -0.02200
C2827       C  0.89249305  0.92697188  0.45575400     0.07700
C2828       C  0.87939954  0.92884502  0.43551776    -0.02400
Br2829     Br  0.85329733  0.97534418  0.42501637    -0.01000
Br2830     Br  0.85414989  0.89010614  0.39886644    -0.01000
Br2831     Br  0.94645067  0.90025603  0.48601097    -0.01000
Br2832     Br  0.98695639  0.84678210  0.44859143    -0.01000
loop_ 
_geom_bond_atom_site_label_1 
_geom_bond_atom_site_label_2 
_geom_bond_distance 
_geom_bond_site_symmetry_2 
_ccdc_geom_bond_type 
N1            C6   1.351       .  A
N1            C5   1.360       .  A
N1           H33   1.038       .  S
N2            C9   1.356       .  A
N2           C10   1.349       .  A
N3            C8   1.358       .  A
N3            C7   1.348       .  A
N3           H34   1.041       .  S
N4           C11   1.345       .  A
N4           C12   1.352       .  A
C5           C13   1.386       .  A
C5           C21   1.423       .  A
C6           C22   1.421       .  A
C6           C14   1.388       .  A
C7           C15   1.389       .  A
C7           C24   1.414       .  A
C8           C23   1.414       .  A
C8           C16   1.385       .  A
C9           C21   1.420       .  A
C9           C17   1.386       .  A
C10          C24   1.417       .  A
C10          C18   1.388       .  A
C11          C19   1.390       .  A
C11          C22   1.413       .  A
C12          C20   1.384       .  A
C12          C23   1.410       .  A
C13          C14   1.372       .  A
C13          H25   1.079       .  S
C14          H26   1.082       .  S
C15          C16   1.375       .  A
C15          H27   1.081       .  S
C16          H28   1.082       .  S
C17          C18   1.370       .  A
C17          H29   1.081       .  S
C18          H30   1.082       .  S
C19          C20   1.374       .  A
C19          H31   1.082       .  S
C20          H32   1.082       .  S
C21         C700   1.514       .  S
C22         C693   1.481       .  S
C23         C670   1.501       .  S
C24         C683   1.483       .  S
N35          C40   1.349       .  A
N35          C39   1.360       .  A
N35          H67   1.041       .  S
N36          C43   1.357       .  A
N36          C44   1.346       .  A
N37          C42   1.362       .  A
N37          C41   1.352       .  A
N37          H68   1.040       .  S
N38          C45   1.352       .  A
N38          C46   1.357       .  A
C39          C47   1.384       .  A
C39          C55   1.422       .  A
C40          C56   1.419       .  A
C40          C48   1.390       .  A
C41          C49   1.392       .  A
C41          C58   1.425       .  A
C42          C57   1.420       .  A
C42          C50   1.384       .  A
C43          C55   1.419       .  A
C43          C51   1.383       .  A
C44          C58   1.414       .  A
C44          C52   1.389       .  A
C45          C53   1.389       .  A
C45          C56   1.420       .  A
C46          C54   1.384       .  A
C46          C57   1.419       .  A
C47          C48   1.382       .  A
C47          H59   1.082       .  S
C48          H60   1.082       .  S
C49          C50   1.377       .  A
C49          H61   1.082       .  S
C50          H62   1.082       .  S
C51          C52   1.372       .  A
C51          H63   1.081       .  S
C52          H64   1.079       .  S
C53          C54   1.377       .  A
C53          H65   1.082       .  S
C54          H66   1.082       .  S
C55         C643   1.524       .  S
C56         C633   1.489       .  S
C57         C650   1.517       .  S
C58         C660   1.481       .  S
O69          C77   1.260       .  A
O69         Co89   2.024       .  S
O70          C78   1.270       .  A
O70         Co90   2.018       .  S
O71          C79   1.268       .  A
O71         Co91   2.014   1_545  S
O72          C80   1.256       .  A
O72        Co800   1.959       .  S
O73          C79   1.259       .  A
O73         Co90   1.968       .  S
O74          C80   1.278       .  A
O74         Co89   2.052       .  S
O75          C78   1.258       .  A
O75         Co92   1.969       .  S
O76          C77   1.247       .  A
O76        Co799   1.979       .  S
C77         C703   1.512       .  S
C78         C590   1.474       .  S
C79         C690   1.468       .  S
C80         C603   1.499       .  S
O81          C94   1.259       .  A
O81         Co89   2.012       .  S
O82          C95   1.267       .  A
O82         Co90   2.034       .  S
O83          C96   1.269       .  A
O83        Co799   1.892       .  S
O84          C97   1.253       .  A
O84         Co92   1.960       .  S
O85          C97   1.267       .  A
O85         Co90   2.013       .  S
O86          C96   1.283       .  A
O86         Co89   2.048       .  S
O87          C94   1.244       .  A
O87        Co800   1.967       .  S
O88          C95   1.264       .  A
O88         Co91   2.003   1_545  S
Co89        O801   2.197       .  S
Co90         O93   2.122       .  S
Co91        O784   1.979       .  S
Co91        O791   1.892       .  S
Co91         O93   1.967   1_565  S
Co92        O780   1.959   1_545  S
Co92        O795   1.967   1_545  S
Co92         O93   1.995       .  S
O93        Co797   2.197   1_545  S
C94         C620   1.474       .  S
C95         C653   1.518       .  S
C96         C663   1.457       .  S
C97         C613   1.476       .  S
N98         C103   1.360       .  A
N98         C102   1.356       .  A
N98         H130   1.032       .  S
N99         C106   1.355       .  A
N99         C107   1.356       .  A
N100        C105   1.360       .  A
N100        C104   1.362       .  A
N100        H131   1.035       .  S
N101        C108   1.356       .  A
N101        C109   1.354       .  A
C102        C110   1.390       .  A
C102        C118   1.430       .  A
C103        C119   1.428       .  A
C103        C111   1.386       .  A
C104        C121   1.433       .  A
C104       C1528   1.388       .  A
C105        C120   1.430       .  A
C105       C1529   1.387       .  A
C106        C118   1.426       .  A
C106        C114   1.388       .  A
C107        C121   1.425       .  A
C107        C115   1.386       .  A
C108        C116   1.386       .  A
C108        C119   1.425       .  A
C109        C117   1.388       .  A
C109        C120   1.425       .  A
C110        C111   1.372       .  A
C110        H122   1.082       .  S
C111        H123   1.081       .  S
C112        C113   1.371       .  A
C112       C1520   1.388       .  A
C112        H124   1.082       .  S
C113       C1521   1.387       .  A
C113        H125   1.080       .  S
C114        C115   1.372       .  A
C114        H126   1.081       .  S
C115        H127   1.081       .  S
C116        C117   1.365       .  A
C116        H128   1.081       .  S
C117        H129   1.082       .  S
C118        C593   1.502       .  S
C119        C600   1.513       .  S
C120        C580   1.511       .  S
C121        C573   1.516       .  S
N132        C137   1.355       .  A
N132        C136   1.356       .  A
N132        H164   1.029       .  S
N133        C140   1.352       .  A
N133        C141   1.352       .  A
N134        C139   1.357       .  A
N134        C138   1.356       .  A
N134        H165   1.039       .  S
N135        C142   1.349       .  A
N135        C143   1.347       .  A
C136        C144   1.389       .  A
C136        C152   1.428       .  A
C137        C153   1.425       .  A
C137        C145   1.386       .  A
C138        C146   1.387       .  A
C138        C155   1.422       .  A
C139        C154   1.421       .  A
C139        C147   1.387       .  A
C140        C152   1.426       .  A
C140        C148   1.389       .  A
C141        C155   1.416       .  A
C141        C149   1.385       .  A
C142        C150   1.387       .  A
C142        C153   1.413       .  A
C143        C151   1.386       .  A
C143        C154   1.409       .  A
C144        C145   1.374       .  A
C144        H156   1.081       .  S
C145        H157   1.082       .  S
C146        C147   1.367       .  A
C146        H158   1.078       .  S
C147        H159   1.082       .  S
C148        C149   1.364       .  A
C148        H160   1.081       .  S
C149        H161   1.082       .  S
C150        C151   1.367       .  A
C150        H162   1.082       .  S
C151        H163   1.081       .  S
C152        C550   1.502       .  S
C153        C560   1.491       .  S
C154        C623   1.489       .  S
C155        C610   1.502       .  S
O166       C1590   1.271       .  A
O166       Co186   2.018       .  S
O167        C175   1.267       .  A
O167       Co187   2.013       .  S
O168        C176   1.265       .  A
O168       Co188   1.893       .  S
O169        C177   1.259       .  A
O169       Co189   1.969       .  S
O170       C1592   1.303   1_455  A
O170       Co187   2.138       .  S
O171        C177   1.278       .  A
O171       Co186   2.052       .  S
O172        C175   1.256       .  A
O172       Co189   1.968       .  S
O173        C174   1.261       .  A
O173       Co188   1.959       .  S
C174        C680   1.489       .  S
C174       O1582   1.271       .  A
C175        C520   1.491       .  S
C176        C513   1.523       .  S
C176       O1586   1.303       .  A
C177        C640   1.514       .  S
O178        C191   1.242       .  A
O178       Co894   1.909       .  S
O179       C1608   1.267       .  A
O179       Co895   1.893       .  S
O180        C193   1.271       .  A
O180       Co896   2.055       .  S
O181        C194   1.279       .  A
O181       Co897   2.033       .  S
O182        C194   1.278       .  A
O182       Co895   2.008       .  S
O183       C1609   1.246       .  A
O183       Co894   1.956       .  S
O184        C191   1.275       .  A
O184       Co897   2.062       .  S
O185        C192   1.295       .  A
O185       Co896   2.112       .  S
Co186       O886   1.909       .  S
Co186       O891   1.956       .  S
Co186       O190   2.010       .  S
Co187       O887   1.893       .  S
Co187       O890   2.008       .  S
Co187       O190   2.018       .  S
Co188       O888   2.055       .  S
Co188       O893   2.112       .  S
Co188      O1606   2.024       .  S
Co189       O889   2.033       .  S
Co189       O892   2.062       .  S
Co189       O190   2.056       .  S
O190      Co1604   2.024       .  S
C191        C630   1.493       .  S
C192        C530   1.482       .  S
C192       O1595   1.267       .  A
C193        C673   1.489       .  S
C193       O1599   1.247       .  A
C194        C543   1.508       .  S
O195        C203   1.266       .  A
O195       Co215   2.010   1_556  S
O196        C204   1.294       .  A
O196       Co216   2.115       .  S
O197        C205   1.252       .  A
O197       Co217   1.961       .  S
O198       C1622   1.267       .  A
O198       Co218   1.990       .  S
O199        C205   1.273       .  A
O199       Co216   2.041   1_556  S
O200        C206   1.272       .  A
O200       Co215   2.020       .  S
O201        C204   1.265       .  A
O201       Co218   1.878       .  S
O202       C1619   1.256   1_455  A
O202       Co217   1.970       .  S
C203        C503   1.490       .  S
C203       O1618   1.256       .  A
C204        C433   1.481       .  S
C205        C490   1.480       .  S
C206        C440   1.496       .  S
C206       O1614   1.267       .  A
O207        C220   1.255       .  A
O207       Co215   1.965       .  S
O208        C221   1.269       .  A
O208       Co216   1.979   1_556  S
O209        C222   1.273   1_455  A
O209       Co217   2.024       .  S
O210        C223   1.305       .  A
O210       Co218   2.138       .  S
O211        C223   1.270       .  A
O211       Co216   1.901       .  S
O212       C1638   1.264       .  A
O212       Co215   1.964   1_556  S
O213       C1636   1.268       .  A
O213       Co218   2.033       .  S
O214        C221   1.277       .  A
O214       Co217   2.026       .  S
Co215      O1635   2.047       .  S
Co216       O219   2.026       .  S
Co217       O219   2.020   1_556  S
Co218       O219   2.025       .  S
O219      Co1631   2.047   1_455  S
C220        C460   1.487       .  S
C220       O1629   1.268       .  A
C221        C470   1.501       .  S
C222       C1899   1.507       .  S
C222       O1628   1.264       .  A
C223        C450   1.519       .  S
N224        C229   1.349       .  A
N224        C228   1.349       .  A
N224        H256   1.041       .  S
N225        C232   1.353       .  A
N225        C233   1.348       .  A
N226        C231   1.357       .  A
N226        C230   1.353       .  A
N226        H257   1.042       .  S
N227        C234   1.349       .  A
N227        C235   1.350       .  A
C228        C236   1.385       .  A
C228        C244   1.409       .  A
C229        C245   1.412       .  A
C229        C237   1.389       .  A
C230        C238   1.389       .  A
C230        C247   1.421       .  A
C231        C246   1.419       .  A
C231        C239   1.385       .  A
C232        C244   1.414       .  A
C232        C240   1.384       .  A
C233        C247   1.414       .  A
C233        C241   1.387       .  A
C234        C242   1.387       .  A
C234        C245   1.414       .  A
C235        C243   1.386       .  A
C235        C246   1.410       .  A
C236        C237   1.380       .  A
C236        H248   1.082       .  S
C237        H249   1.082       .  S
C238        C239   1.384       .  A
C238        H250   1.082       .  S
C239        H251   1.082       .  S
C240        C241   1.377       .  A
C240        H252   1.081       .  S
C241        H253   1.082       .  S
C242        C243   1.372       .  A
C242        H254   1.081       .  S
C243        H255   1.082       .  S
C244        C423   1.495       .  S
C245        C410   1.490       .  S
C246        C473   1.501       .  S
C247        C480   1.491       .  S
N258        C263   1.352       .  A
N258        C262   1.352       .  A
N258        H290   1.044       .  S
N259        C266   1.352       .  A
N259        C267   1.350       .  A
N260        C265   1.355       .  A
N260        C264   1.360       .  A
N260        H291   1.036       .  S
N261        C268   1.356       .  A
N261        C269   1.350       .  A
C262        C270   1.387       .  A
C262        C278   1.411       .  A
C263        C279   1.409       .  A
C263        C271   1.386       .  A
C264        C272   1.388       .  A
C264        C281   1.428       .  A
C265        C280   1.422       .  A
C265        C273   1.386       .  A
C266        C278   1.415       .  A
C266        C274   1.384       .  A
C267        C281   1.425       .  A
C267        C275   1.390       .  A
C268        C276   1.387       .  A
C268        C279   1.419       .  A
C269        C277   1.385       .  A
C269        C280   1.414       .  A
C270        C271   1.374       .  A
C270        H282   1.082       .  S
C271        H283   1.082       .  S
C272        C273   1.378       .  A
C272        H284   1.082       .  S
C273        H285   1.082       .  S
C274        C275   1.376       .  A
C274        H286   1.082       .  S
C275        H287   1.081       .  S
C276        C277   1.370       .  A
C276        H288   1.081       .  S
C277        H289   1.082       .  S
C278        C493   1.501       .  S
C279        C500   1.531       .  S
C280        C403   1.490       .  S
C281        C393   1.508       .  S
O292        C300   1.256       .  A
O292       Co312   1.963       .  S
O293        C301   1.258       .  A
O293       Co313   2.035       .  S
O294        C302   1.240       .  A
O294      Co1022   1.952   1_545  S
O295        C303   1.272       .  A
O295       Co315   2.021       .  S
O296        C302   1.264       .  A
O296       Co313   2.033       .  S
O297        C303   1.252       .  A
O297       Co312   1.945       .  S
O298        C301   1.242       .  A
O298      Co1023   1.962   1_545  S
O299        C300   1.274       .  A
O299       Co314   2.033       .  S
C300        C563   1.474       .  S
C301        C390   1.515       .  S
C302        C553   1.487       .  S
C303        C413   1.469       .  S
O304        C317   1.264   1_455  A
O304       Co312   2.017       .  S
O305        C318   1.296       .  A
O305       Co313   2.089       .  S
O306        C319   1.264       .  A
O306       Co314   1.995   1_655  S
O307        C320   1.268       .  A
O307      Co1023   1.891   1_545  S
O308        C320   1.300       .  A
O308       Co313   2.087       .  S
O309        C319   1.264   1_455  A
O309       Co312   2.001       .  S
O310        C317   1.257   1_455  A
O310       Co315   1.985       .  S
O311        C318   1.268       .  A
O311      Co1022   1.915   1_545  S
Co312       O316   2.096       .  S
Co313      O1024   2.266   1_545  S
Co314      O1002   1.951       .  S
Co314      O1019   1.915       .  S
Co314       O316   1.941       .  S
Co315      O1006   1.962       .  S
Co315      O1015   1.891       .  S
Co315       O316   1.916       .  S
O316      Co1021   2.266       .  S
C317       C1836   1.504       .  S
C318        C570   1.496   1_455  S
C319        C583   1.491       .  S
C320       C1816   1.490   1_455  S
N321        C326   1.353       .  A
N321        C325   1.357       .  A
N321        H353   1.039       .  S
N322        C329   1.356       .  A
N322        C330   1.351       .  A
N323        C328   1.362       .  A
N323        C327   1.354       .  A
N323        H354   1.042       .  S
N324        C331   1.348       .  A
N324        C332   1.354       .  A
C325        C333   1.388       .  A
C325        C341   1.427       .  A
C326        C342   1.423       .  A
C326        C334   1.387       .  A
C327        C335   1.389       .  A
C327        C344   1.426       .  A
C328        C343   1.429       .  A
C328        C336   1.386       .  A
C329        C341   1.422       .  A
C329        C337   1.386       .  A
C330        C344   1.417       .  A
C330        C338   1.388       .  A
C331        C339   1.388       .  A
C331        C342   1.417       .  A
C332        C340   1.384       .  A
C332        C343   1.414       .  A
C333        C334   1.375       .  A
C333        H345   1.079       .  S
C334        H346   1.082       .  S
C335        C336   1.371       .  A
C335        H347   1.080       .  S
C336        H348   1.081       .  S
C337        C338   1.368       .  A
C337        H349   1.082       .  S
C338        H350   1.082       .  S
C339        C340   1.376       .  A
C339        H351   1.082       .  S
C340        H352   1.082       .  S
C341        C443   1.512       .  S
C342        C430   1.492       .  S
C343        C540   1.524       .  S
C344        C533   1.492       .  S
N355        C360   1.360       .  A
N355        C359   1.350       .  A
N355        H387   1.037       .  S
N356        C363   1.350       .  A
N356        C364   1.355       .  A
N357        C362   1.352       .  A
N357        C361   1.360       .  A
N357        H388   1.034       .  S
N358        C365   1.352       .  A
N358        C366   1.347       .  A
C359        C367   1.387       .  A
C359        C375   1.418       .  A
C360        C376   1.426       .  A
C360        C368   1.386       .  A
C361        C369   1.385       .  A
C361        C378   1.426       .  A
C362        C377   1.428       .  A
C362        C370   1.390       .  A
C363        C375   1.417       .  A
C363        C371   1.388       .  A
C364        C378   1.421       .  A
C364        C372   1.386       .  A
C365        C373   1.384       .  A
C365        C376   1.412       .  A
C366        C374   1.388       .  A
C366        C377   1.413       .  A
C367        C368   1.376       .  A
C367        H379   1.082       .  S
C368        H380   1.081       .  S
C369        C370   1.377       .  A
C369        H381   1.081       .  S
C370        H382   1.082       .  S
C371        C372   1.365       .  A
C371        H383   1.082       .  S
C372        H384   1.082       .  S
C373        C374   1.372       .  A
C373        H385   1.082       .  S
C374        H386   1.082       .  S
C375        C523   1.481       .  S
C376        C510   1.513       .  S
C377        C463   1.485       .  S
C378        C453   1.514       .  S
C389        C390   1.426       .  A
C389        C394   1.408       .  A
C389       Br396   1.931   1_545  S
C390        C391   1.422       .  A
C391        C392   1.421       .  A
C391       Br398   1.928       .  S
C392        C393   1.412       .  A
C392       Br397   1.930       .  S
C393        C394   1.403       .  A
C394       Br395   1.930   1_545  S
C399        C400   1.420       .  A
C399        C404   1.406       .  A
C399       Br406   1.935   1_545  S
C400        C401   1.419       .  A
C400       C1736   1.490       .  S
C401        C402   1.410       .  A
C401      Br1824   1.934       .  S
C402        C403   1.406       .  A
C402       Br407   1.929       .  S
C403        C404   1.408       .  A
C404       Br405   1.936       .  S
Br408      C1817   1.934   1_455  S
C409        C410   1.413       .  A
C409        C414   1.401       .  A
C409       Br416   1.933       .  S
C410        C411   1.413       .  A
C411        C412   1.404       .  A
C411       Br418   1.925       .  S
C412        C413   1.404       .  A
C412       Br417   1.923       .  S
C413        C414   1.413       .  A
C414       Br415   1.935       .  S
C419        C420   1.420       .  A
C419        C424   1.409       .  A
C419       Br426   1.936       .  S
C420        C421   1.424       .  A
C420       C1733   1.505       .  S
C421        C422   1.413       .  A
C421      Br1844   1.930       .  S
C422        C423   1.406       .  A
C422       Br427   1.933       .  S
C423        C424   1.409       .  A
C424       Br425   1.929       .  S
Br428      C1837   1.930       .  S
C429        C430   1.409       .  A
C429        C434   1.403       .  A
C429       Br436   1.934       .  S
C430        C431   1.413       .  A
C431        C432   1.408       .  A
C431       Br438   1.929       .  S
C432        C433   1.408       .  A
C432       Br437   1.929       .  S
C433        C434   1.413       .  A
C434       Br435   1.921       .  S
C439        C440   1.410       .  A
C439        C444   1.420       .  A
C439       Br446   1.921       .  S
C440        C441   1.411       .  A
C441        C442   1.404       .  A
C441      Br1864   1.920       .  S
C442        C443   1.415       .  A
C442       Br447   1.937       .  S
C443        C444   1.418       .  A
C444       Br445   1.928       .  S
Br448      C1857   1.920   1_455  S
C449        C450   1.419       .  A
C449        C454   1.411       .  A
C449       Br456   1.921       .  S
C450        C451   1.423       .  A
C451        C452   1.420       .  A
C451       Br458   1.915       .  S
C452        C453   1.411       .  A
C452       Br457   1.932       .  S
C453        C454   1.412       .  A
C454       Br455   1.934       .  S
C459        C460   1.411       .  A
C459        C464   1.413       .  A
C459       Br466   1.928       .  S
C460        C461   1.423       .  A
C461        C462   1.397       .  A
C461       Br468   1.915       .  S
C462        C463   1.398       .  A
C462       Br467   1.943       .  S
C463        C464   1.412       .  A
C464       Br465   1.928       .  S
C469        C470   1.403       .  A
C469        C474   1.399       .  A
C469       Br476   1.925       .  S
C470        C471   1.411       .  A
C471        C472   1.421       .  A
C471       Br478   1.922       .  S
C472        C473   1.414       .  A
C472       Br477   1.924       .  S
C473        C474   1.410       .  A
C474       Br475   1.920       .  S
C479        C480   1.405       .  A
C479        C484   1.410       .  A
C479       Br486   1.938       .  S
C480        C481   1.404       .  A
C481        C482   1.413       .  A
C481       Br488   1.932       .  S
C482        C483   1.427       .  A
C482       Br487   1.935       .  S
C483        C484   1.429       .  A
C483       C1638   1.507       .  S
C484       Br485   1.939       .  S
C489        C490   1.404       .  A
C489        C494   1.411       .  A
C489       Br496   1.927   1_556  S
C490        C491   1.410       .  A
C491        C492   1.403       .  A
C491       Br498   1.918       .  S
C492        C493   1.411       .  A
C492       Br497   1.932       .  S
C493        C494   1.418       .  A
C494       Br495   1.924       .  S
C499        C500   1.412       .  A
C499        C504   1.409       .  A
C499       Br506   1.934       .  S
C500        C501   1.416       .  A
C501        C502   1.407       .  A
C501       Br508   1.925       .  S
C502        C503   1.414       .  A
C502       Br507   1.934   1_556  S
C503        C504   1.421       .  A
C504      Br1921   1.929       .  S
Br505      C1920   1.929   1_455  S
C509        C510   1.408       .  A
C509        C514   1.417       .  A
C509       Br516   1.934       .  S
C510        C511   1.414       .  A
C511        C512   1.413       .  A
C511       Br518   1.939       .  S
C512        C513   1.424       .  A
C512      Br1933   1.928       .  S
C513        C514   1.432       .  A
C514       Br515   1.932       .  S
Br517      C1928   1.928   1_455  S
C519        C520   1.419       .  A
C519        C524   1.407       .  A
C519       Br526   1.930       .  S
C520        C521   1.410       .  A
C521        C522   1.399       .  A
C521      Br1236   1.910       .  S
C522        C523   1.403       .  A
C522       Br527   1.931       .  S
C523        C524   1.407       .  A
C524       Br525   1.932       .  S
Br528      C1229   1.910   1_545  S
C529        C530   1.404       .  A
C529        C534   1.391       .  A
C529       Br536   1.908       .  S
C530        C531   1.408       .  A
C531        C532   1.416       .  A
C531      Br1954   1.923       .  S
C532        C533   1.415       .  A
C532       Br537   1.925       .  S
C533        C534   1.399       .  A
C534       Br535   1.919       .  S
Br538      C1947   1.923   1_455  S
C539        C540   1.422       .  A
C539        C544   1.416       .  A
C539      Br1254   1.929       .  S
C540        C541   1.415       .  A
C541        C542   1.414       .  A
C541       Br548   1.933       .  S
C542        C543   1.413       .  A
C542       Br547   1.910       .  S
C543        C544   1.409       .  A
C544      Br1253   1.920       .  S
Br545      C1252   1.920       .  S
Br546      C1247   1.929       .  S
C549        C550   1.411       .  A
C549        C554   1.393       .  A
C549       Br556   1.936       .  S
C550        C551   1.420       .  A
C551        C552   1.418       .  A
C551       Br558   1.927       .  S
C552        C553   1.407       .  A
C552       Br557   1.920       .  S
C553        C554   1.408       .  A
C554       Br555   1.921       .  S
C559        C560   1.413       .  A
C559        C564   1.412       .  A
C559       Br566   1.928       .  S
C560        C561   1.404       .  A
C561        C562   1.398       .  A
C561       Br568   1.928       .  S
C562        C563   1.409       .  A
C562       Br567   1.919       .  S
C563        C564   1.410       .  A
C564       Br565   1.929       .  S
C569        C570   1.408   1_455  A
C569        C574   1.407   1_455  A
C569       Br576   1.922       .  S
C570       C1987   1.412       .  A
C571        C572   1.422       .  A
C571       C1986   1.412       .  A
C571       Br578   1.926       .  S
C572        C573   1.419       .  A
C572       Br577   1.928       .  S
C573       C1990   1.413       .  A
C574       C1989   1.413       .  A
C574       Br575   1.928   1_655  S
C579        C580   1.419       .  A
C579        C584   1.419       .  A
C579       Br586   1.927       .  S
C580        C581   1.413       .  A
C581       C1998   1.399       .  A
C581       Br588   1.939       .  S
C582        C583   1.409       .  A
C582       C1997   1.399       .  A
C582       Br587   1.908       .  S
C583       C2000   1.411       .  A
C584       C1999   1.411       .  A
C584       Br585   1.921       .  S
C589        C590   1.406       .  A
C589        C594   1.413       .  A
C589       Br596   1.928       .  S
C590        C591   1.404       .  A
C591        C592   1.401       .  A
C591       Br598   1.917       .  S
C592        C593   1.412       .  A
C592       Br597   1.933       .  S
C593        C594   1.418       .  A
C594       Br595   1.926       .  S
C599        C600   1.415       .  A
C599        C604   1.403       .  A
C599       Br606   1.934       .  S
C600        C601   1.419       .  A
C601        C602   1.419       .  A
C601       Br608   1.929       .  S
C602        C603   1.407       .  A
C602       Br607   1.911       .  S
C603        C604   1.411       .  A
C604       Br605   1.925       .  S
C609        C610   1.416       .  A
C609        C614   1.396       .  A
C609       Br616   1.937       .  S
C610        C611   1.415       .  A
C611        C612   1.407       .  A
C611       Br618   1.930       .  S
C612        C613   1.411       .  A
C612       Br617   1.916       .  S
C613        C614   1.408       .  A
C614       Br615   1.920       .  S
C619        C620   1.407       .  A
C619        C624   1.398       .  A
C619       Br626   1.917       .  S
C620        C621   1.408       .  A
C621        C622   1.410       .  A
C621       Br628   1.927       .  S
C622        C623   1.413       .  A
C622       Br627   1.928       .  S
C623        C624   1.409       .  A
C624       Br625   1.938       .  S
C629        C630   1.415       .  A
C629        C634   1.418       .  A
C629       Br636   1.925       .  S
C630        C631   1.421       .  A
C631        C632   1.393       .  A
C631       Br638   1.943       .  S
C632        C633   1.404       .  A
C632       Br637   1.933       .  S
C633        C634   1.413       .  A
C634       Br635   1.927       .  S
C639        C640   1.420       .  A
C639        C644   1.415       .  A
C639       Br646   1.930       .  S
C640        C641   1.418       .  A
C641        C642   1.420       .  A
C641       Br648   1.924       .  S
C642        C643   1.417       .  A
C642       Br647   1.932       .  S
C643        C644   1.415       .  A
C644       Br645   1.924       .  S
C649        C650   1.409       .  A
C649        C654   1.405       .  A
C649       Br656   1.935       .  S
C650        C651   1.421       .  A
C651        C652   1.428       .  A
C651       Br658   1.923       .  S
C652        C653   1.410       .  A
C652       Br657   1.920       .  S
C653        C654   1.412       .  A
C654       Br655   1.906       .  S
C659        C660   1.410       .  A
C659        C664   1.390       .  A
C659       Br666   1.931       .  S
C660        C661   1.412       .  A
C661        C662   1.409       .  A
C661       Br668   1.929       .  S
C662        C663   1.409       .  A
C662       Br667   1.927       .  S
C663        C664   1.400       .  A
C664       Br665   1.921       .  S
C669        C670   1.407       .  A
C669        C674   1.407       .  A
C669       Br676   1.934       .  S
C670        C671   1.413       .  A
C671        C672   1.418       .  A
C671       Br678   1.927       .  S
C672        C673   1.412       .  A
C672       Br677   1.924       .  S
C673        C674   1.415       .  A
C674      Br2091   1.924       .  S
Br675      C2090   1.924   1_455  S
C679        C680   1.419       .  A
C679        C684   1.399       .  A
C679       Br686   1.929       .  S
C680        C681   1.422       .  A
C681        C682   1.403       .  A
C681       Br688   1.929       .  S
C682        C683   1.406       .  A
C682       Br687   1.934       .  S
C683        C684   1.405       .  A
C684       Br685   1.935       .  S
C689        C690   1.406       .  A
C689        C694   1.406       .  A
C689       Br696   1.927       .  S
C690        C691   1.413       .  A
C691        C692   1.398       .  A
C691       Br698   1.924       .  S
C692        C693   1.406       .  A
C692       Br697   1.936       .  S
C693        C694   1.412       .  A
C694       Br695   1.930       .  S
C699        C700   1.412       .  A
C699        C704   1.408       .  A
C699       Br706   1.935       .  S
C700        C701   1.417       .  A
C701        C702   1.419       .  A
C701       Br708   1.930       .  S
C702        C703   1.411       .  A
C702       Br707   1.908       .  S
C703        C704   1.417       .  A
C704       Br705   1.915       .  S
N709        C714   1.351       .  A
N709        C713   1.360       .  A
N709        H741   1.038       .  S
N710        C717   1.356       .  A
N710        C718   1.349       .  A
N711        C716   1.358       .  A
N711        C715   1.348       .  A
N711        H742   1.041       .  S
N712        C719   1.345       .  A
N712        C720   1.352       .  A
C713        C721   1.386       .  A
C713        C729   1.423       .  A
C714        C730   1.421       .  A
C714        C722   1.388       .  A
C715        C723   1.389       .  A
C715        C732   1.414       .  A
C716        C731   1.414       .  A
C716        C724   1.385       .  A
C717        C729   1.420       .  A
C717        C725   1.386       .  A
C718        C732   1.417       .  A
C718        C726   1.388       .  A
C719        C727   1.390       .  A
C719        C730   1.413       .  A
C720        C728   1.384       .  A
C720        C731   1.410       .  A
C721        C722   1.372       .  A
C721        H733   1.079       .  S
C722        H734   1.082       .  S
C723        C724   1.375       .  A
C723        H735   1.081       .  S
C724        H736   1.082       .  S
C725        C726   1.370       .  A
C725        H737   1.081       .  S
C726        H738   1.082       .  S
C727        C728   1.374       .  A
C727        H739   1.082       .  S
C728        H740   1.082       .  S
C729       C1408   1.514       .  S
C730       C1401   1.481       .  S
C731       C1378   1.501       .  S
C732       C1391   1.483       .  S
N743        C748   1.349       .  A
N743        C747   1.360       .  A
N743        H775   1.041       .  S
N744        C751   1.357       .  A
N744        C752   1.346       .  A
N745        C750   1.362       .  A
N745        C749   1.352       .  A
N745        H776   1.040       .  S
N746        C753   1.352       .  A
N746        C754   1.357       .  A
C747        C755   1.384       .  A
C747        C763   1.422       .  A
C748        C764   1.419       .  A
C748        C756   1.390       .  A
C749        C757   1.392       .  A
C749        C766   1.425       .  A
C750        C765   1.420       .  A
C750        C758   1.384       .  A
C751        C763   1.419       .  A
C751        C759   1.383       .  A
C752        C766   1.414       .  A
C752        C760   1.389       .  A
C753        C761   1.389       .  A
C753        C764   1.420       .  A
C754        C762   1.384       .  A
C754        C765   1.419       .  A
C755        C756   1.382       .  A
C755        H767   1.082       .  S
C756        H768   1.082       .  S
C757        C758   1.377       .  A
C757        H769   1.082       .  S
C758        H770   1.082       .  S
C759        C760   1.372       .  A
C759        H771   1.081       .  S
C760        H772   1.079       .  S
C761        C762   1.377       .  A
C761        H773   1.082       .  S
C762        H774   1.082       .  S
C763       C1351   1.524       .  S
C764       C1341   1.489       .  S
C765       C1358   1.517       .  S
C766       C1368   1.481       .  S
O777        C785   1.260       .  A
O777       Co797   2.024       .  S
O778        C786   1.270       .  A
O778       Co798   2.018       .  S
O779        C787   1.268       .  A
O779       Co799   2.014       .  S
O780        C788   1.256       .  A
O781        C787   1.259       .  A
O781       Co798   1.968       .  S
O782        C788   1.279       .  A
O782       Co797   2.053       .  S
O783        C786   1.258       .  A
O783       Co800   1.969       .  S
O784        C785   1.247       .  A
C785       C1411   1.511       .  S
C786       C1298   1.474       .  S
C787       C1398   1.468       .  S
C788       C1311   1.499       .  S
O789        C802   1.259       .  A
O789       Co797   2.012       .  S
O790        C803   1.267       .  A
O790       Co798   2.034       .  S
O791        C804   1.269       .  A
O792        C805   1.253       .  A
O792       Co800   1.960       .  S
O793        C805   1.267       .  A
O793       Co798   2.014       .  S
O794        C804   1.283       .  A
O794       Co797   2.048       .  S
O795        C802   1.244       .  A
O796        C803   1.264       .  A
O796       Co799   2.003       .  S
Co798       O801   2.122       .  S
Co799       O801   1.967       .  S
Co800       O801   1.995       .  S
C802       C1328   1.474       .  S
C803       C1361   1.518       .  S
C804       C1371   1.457       .  S
C805       C1321   1.476       .  S
N806        C811   1.360       .  A
N806        C810   1.356       .  A
N806        H838   1.032       .  S
N807        C814   1.355       .  A
N807        C815   1.356       .  A
N808        C813   1.360       .  A
N808        C812   1.362       .  A
N808        H839   1.035       .  S
N809        C816   1.356       .  A
N809        C817   1.354       .  A
C810        C818   1.390       .  A
C810        C826   1.430       .  A
C811        C827   1.428       .  A
C811        C819   1.386       .  A
C812       C2236   1.388       .  A
C812        C829   1.433       .  A
C813        C828   1.429       .  A
C813       C2237   1.387       .  A
C814        C826   1.426       .  A
C814        C822   1.388       .  A
C815        C829   1.425       .  A
C815        C823   1.386       .  A
C816        C824   1.386       .  A
C816        C827   1.425       .  A
C817        C825   1.388       .  A
C817        C828   1.425       .  A
C818        C819   1.372       .  A
C818        H830   1.082       .  S
C819        H831   1.081       .  S
C820       C2228   1.388       .  A
C820        C821   1.371       .  A
C820        H832   1.082       .  S
C821       C2229   1.387       .  A
C821        H833   1.080       .  S
C822        C823   1.372       .  A
C822        H834   1.081       .  S
C823        H835   1.081       .  S
C824        C825   1.365       .  A
C824        H836   1.081       .  S
C825        H837   1.082       .  S
C826       C1301   1.502       .  S
C827       C1308   1.513       .  S
C828       C1288   1.511       .  S
C829       C1281   1.516       .  S
N840        C845   1.355       .  A
N840        C844   1.356       .  A
N840        H872   1.028       .  S
N841        C848   1.352       .  A
N841        C849   1.352       .  A
N842        C847   1.357       .  A
N842        C846   1.356       .  A
N842        H873   1.038       .  S
N843        C850   1.349       .  A
N843        C851   1.347       .  A
C844        C852   1.389       .  A
C844        C860   1.428       .  A
C845        C861   1.425       .  A
C845        C853   1.387       .  A
C846        C854   1.387       .  A
C846        C863   1.422       .  A
C847        C862   1.421       .  A
C847        C855   1.387       .  A
C848        C860   1.426       .  A
C848        C856   1.389       .  A
C849        C863   1.416       .  A
C849        C857   1.385       .  A
C850        C858   1.387       .  A
C850        C861   1.413       .  A
C851        C859   1.386       .  A
C851        C862   1.409       .  A
C852        C853   1.374       .  A
C852        H864   1.081       .  S
C853        H865   1.082       .  S
C854        C855   1.367       .  A
C854        H866   1.078       .  S
C855        H867   1.082       .  S
C856        C857   1.364       .  A
C856        H868   1.081       .  S
C857        H869   1.082       .  S
C858        C859   1.367       .  A
C858        H870   1.082       .  S
C859        H871   1.081       .  S
C860       C1258   1.502       .  S
C861       C1268   1.491       .  S
C862       C1331   1.489       .  S
C863       C1318   1.502       .  S
O874       C2298   1.271       .  A
O874       Co894   2.018   1_565  S
O875        C883   1.267   1_545  A
O875       Co895   2.013       .  S
O876        C884   1.265       .  A
O876       Co896   1.893   1_565  S
O877        C885   1.259       .  A
O877       Co897   1.969   1_565  S
O878       C2300   1.303   1_455  A
O878       Co895   2.138   1_565  S
O879        C885   1.278       .  A
O879       Co894   2.052   1_565  S
O880        C883   1.256       .  A
O880       Co897   1.968   1_565  S
O881        C882   1.261       .  A
O881       Co896   1.959   1_565  S
C882       C1388   1.489       .  S
C882       O2290   1.271       .  A
C883       C1228   1.491       .  S
C884       C1221   1.523       .  S
C884       O2294   1.303       .  A
C885       C1348   1.514       .  S
O886        C899   1.242       .  A
O887       C2316   1.267       .  A
O888        C901   1.271       .  A
O889        C902   1.279       .  A
O890        C902   1.278       .  A
O891       C2317   1.246       .  A
O892        C899   1.275       .  A
O893        C900   1.295       .  A
Co894       O898   2.010       .  S
Co895       O898   2.018       .  S
Co896      O2314   2.024       .  S
Co897       O898   2.056       .  S
O898      Co2312   2.024       .  S
C899       C1338   1.493       .  S
C900       C1238   1.482       .  S
C900       O2303   1.267       .  A
C901       C1381   1.489       .  S
C901       O2307   1.247       .  A
C902       C1251   1.508       .  S
O903        C911   1.266       .  A
O903       Co923   2.010   1_556  S
O904        C912   1.294       .  A
O904       Co924   2.115       .  S
O905        C913   1.252       .  A
O905       Co925   1.961       .  S
O906       C2330   1.267       .  A
O906       Co926   1.990       .  S
O907        C913   1.273       .  A
O907       Co924   2.041   1_556  S
O908        C914   1.272       .  A
O908       Co923   2.020       .  S
O909        C912   1.265       .  A
O909       Co926   1.878       .  S
O910       C2327   1.256   1_455  A
O910       Co925   1.970       .  S
C911       C1211   1.490       .  S
C911       O2326   1.256       .  A
C912       C1141   1.481       .  S
C913       C1198   1.480       .  S
C914       C1148   1.496       .  S
C914       O2322   1.267       .  A
O915        C928   1.255       .  A
O915       Co923   1.965       .  S
O916        C929   1.268       .  A
O916       Co924   1.979   1_556  S
O917        C930   1.273   1_455  A
O917       Co925   2.024       .  S
O918        C931   1.305       .  A
O918       Co926   2.137       .  S
O919        C931   1.270       .  A
O919       Co924   1.901       .  S
O920       C2346   1.264       .  A
O920       Co923   1.964   1_556  S
O921       C2344   1.268       .  A
O921       Co926   2.033       .  S
O922        C929   1.277       .  A
O922       Co925   2.026       .  S
Co923      O2343   2.047       .  S
Co924       O927   2.026       .  S
Co925       O927   2.020   1_556  S
Co926       O927   2.025       .  S
O927      Co2339   2.047   1_455  S
C928       C1168   1.487       .  S
C928       O2337   1.268       .  A
C929       C1178   1.500       .  S
C930       C2607   1.507       .  S
C930       O2336   1.264       .  A
C931       C1158   1.519       .  S
N932        C937   1.349       .  A
N932        C936   1.349       .  A
N932        H964   1.041       .  S
N933        C940   1.353       .  A
N933        C941   1.348       .  A
N934        C939   1.357       .  A
N934        C938   1.353       .  A
N934        H965   1.042       .  S
N935        C942   1.349       .  A
N935        C943   1.350       .  A
C936        C944   1.385       .  A
C936        C952   1.409       .  A
C937        C953   1.412       .  A
C937        C945   1.389       .  A
C938        C946   1.389       .  A
C938        C955   1.421       .  A
C939        C954   1.419       .  A
C939        C947   1.385       .  A
C940        C952   1.414       .  A
C940        C948   1.384       .  A
C941        C955   1.414       .  A
C941        C949   1.387       .  A
C942        C950   1.387       .  A
C942        C953   1.414       .  A
C943        C951   1.386       .  A
C943        C954   1.411       .  A
C944        C945   1.380       .  A
C944        H956   1.082       .  S
C945        H957   1.082       .  S
C946        C947   1.384       .  A
C946        H958   1.082       .  S
C947        H959   1.082       .  S
C948        C949   1.377       .  A
C948        H960   1.081       .  S
C949        H961   1.082       .  S
C950        C951   1.372       .  A
C950        H962   1.081       .  S
C951        H963   1.082       .  S
C952       C1131   1.495       .  S
C953       C1118   1.490       .  S
C954       C1181   1.501       .  S
C955       C1188   1.491       .  S
N966        C971   1.352       .  A
N966        C970   1.352       .  A
N966        H998   1.044       .  S
N967        C974   1.352       .  A
N967        C975   1.350       .  A
N968        C973   1.355       .  A
N968        C972   1.360       .  A
N968        H999   1.036       .  S
N969        C976   1.356       .  A
N969        C977   1.350       .  A
C970        C978   1.387       .  A
C970        C986   1.411       .  A
C971        C987   1.409       .  A
C971        C979   1.386       .  A
C972        C980   1.388       .  A
C972        C989   1.428       .  A
C973        C988   1.422       .  A
C973        C981   1.386       .  A
C974        C986   1.415       .  A
C974        C982   1.384       .  A
C975        C989   1.425       .  A
C975        C983   1.390       .  A
C976        C984   1.387       .  A
C976        C987   1.419       .  A
C977        C985   1.385       .  A
C977        C988   1.414       .  A
C978        C979   1.374       .  A
C978        H990   1.082       .  S
C979        H991   1.082       .  S
C980        C981   1.378       .  A
C980        H992   1.082       .  S
C981        H993   1.082       .  S
C982        C983   1.376       .  A
C982        H994   1.082       .  S
C983        H995   1.081       .  S
C984        C985   1.370       .  A
C984        H996   1.081       .  S
C985        H997   1.082       .  S
C986       C1201   1.501       .  S
C987       C1208   1.531       .  S
C988       C1111   1.490       .  S
C989       C1101   1.509       .  S
O1000      C1008   1.256       .  A
O1000     Co1020   1.963       .  S
O1001      C1009   1.258       .  A
O1001     Co1021   2.035       .  S
O1002      C1010   1.240       .  A
O1003      C1011   1.272       .  A
O1003     Co1023   2.021       .  S
O1004      C1010   1.264       .  A
O1004     Co1021   2.033       .  S
O1005      C1011   1.252       .  A
O1005     Co1020   1.945       .  S
O1006      C1009   1.242       .  A
O1007      C1008   1.274       .  A
O1007     Co1022   2.033       .  S
C1008      C1271   1.474       .  S
C1009      C1098   1.515       .  S
C1010      C1261   1.487       .  S
C1011      C1121   1.468       .  S
O1012      C1025   1.264   1_455  A
O1012     Co1020   2.017       .  S
O1013      C1026   1.296       .  A
O1013     Co1021   2.089       .  S
O1014      C1027   1.264       .  A
O1014     Co1022   1.995   1_655  S
O1015      C1028   1.268       .  A
O1016      C1028   1.300       .  A
O1016     Co1021   2.087       .  S
O1017      C1027   1.264   1_455  A
O1017     Co1020   2.001       .  S
O1018      C1025   1.257   1_455  A
O1018     Co1023   1.985       .  S
O1019      C1026   1.268       .  A
Co1020     O1024   2.096       .  S
Co1022     O1024   1.940       .  S
Co1023     O1024   1.916       .  S
C1025      C2544   1.504       .  S
C1026      C1278   1.496   1_455  S
C1027      C1291   1.491       .  S
C1028      C2524   1.490   1_455  S
N1029      C1034   1.352       .  A
N1029      C1033   1.357       .  A
N1029      H1061   1.039       .  S
N1030      C1037   1.356       .  A
N1030      C1038   1.351       .  A
N1031      C1036   1.362       .  A
N1031      C1035   1.354       .  A
N1031      H1062   1.042       .  S
N1032      C1039   1.348       .  A
N1032      C1040   1.354       .  A
C1033      C1041   1.388       .  A
C1033      C1049   1.427       .  A
C1034      C1050   1.423       .  A
C1034      C1042   1.387       .  A
C1035      C1043   1.389       .  A
C1035      C1052   1.426       .  A
C1036      C1051   1.429       .  A
C1036      C1044   1.386       .  A
C1037      C1049   1.422       .  A
C1037      C1045   1.386       .  A
C1038      C1052   1.417       .  A
C1038      C1046   1.388       .  A
C1039      C1047   1.388       .  A
C1039      C1050   1.417       .  A
C1040      C1048   1.384       .  A
C1040      C1051   1.414       .  A
C1041      C1042   1.375       .  A
C1041      H1053   1.079       .  S
C1042      H1054   1.082       .  S
C1043      C1044   1.371       .  A
C1043      H1055   1.080       .  S
C1044      H1056   1.081       .  S
C1045      C1046   1.368       .  A
C1045      H1057   1.082       .  S
C1046      H1058   1.082       .  S
C1047      C1048   1.376       .  A
C1047      H1059   1.082       .  S
C1048      H1060   1.082       .  S
C1049      C1151   1.513       .  S
C1050      C1138   1.491       .  S
C1051      C1248   1.524       .  S
C1052      C1241   1.492       .  S
N1063      C1068   1.360       .  A
N1063      C1067   1.350       .  A
N1063      H1095   1.037       .  S
N1064      C1071   1.350       .  A
N1064      C1072   1.355       .  A
N1065      C1070   1.352       .  A
N1065      C1069   1.360       .  A
N1065      H1096   1.034       .  S
N1066      C1073   1.352       .  A
N1066      C1074   1.347       .  A
C1067      C1075   1.387       .  A
C1067      C1083   1.418       .  A
C1068      C1084   1.426       .  A
C1068      C1076   1.386       .  A
C1069      C1077   1.385       .  A
C1069      C1086   1.426       .  A
C1070      C1085   1.428       .  A
C1070      C1078   1.390       .  A
C1071      C1083   1.417       .  A
C1071      C1079   1.388       .  A
C1072      C1086   1.421       .  A
C1072      C1080   1.386       .  A
C1073      C1081   1.384       .  A
C1073      C1084   1.412       .  A
C1074      C1082   1.388       .  A
C1074      C1085   1.413       .  A
C1075      C1076   1.376       .  A
C1075      H1087   1.083       .  S
C1076      H1088   1.081       .  S
C1077      C1078   1.377       .  A
C1077      H1089   1.081       .  S
C1078      H1090   1.082       .  S
C1079      C1080   1.365       .  A
C1079      H1091   1.082       .  S
C1080      H1092   1.082       .  S
C1081      C1082   1.372       .  A
C1081      H1093   1.082       .  S
C1082      H1094   1.082       .  S
C1083      C1231   1.481       .  S
C1084      C1218   1.513       .  S
C1085      C1171   1.485       .  S
C1086      C1161   1.514       .  S
C1097      C1098   1.426       .  A
C1097      C1102   1.409       .  A
C1097     Br1104   1.931       .  S
C1098      C1099   1.422       .  A
C1099      C1100   1.421       .  A
C1099     Br1106   1.928       .  S
C1100      C1101   1.412       .  A
C1100     Br1105   1.930       .  S
C1101      C1102   1.403       .  A
C1102     Br1103   1.930       .  S
C1107      C1108   1.420       .  A
C1107      C1112   1.406       .  A
C1107     Br1114   1.935       .  S
C1108      C1109   1.419       .  A
C1108      C2444   1.490       .  S
C1109      C1110   1.410       .  A
C1109     Br2532   1.934       .  S
C1110      C1111   1.406       .  A
C1110     Br1115   1.929       .  S
C1111      C1112   1.408       .  A
C1112     Br1113   1.936       .  S
Br1116     C2525   1.934   1_455  S
C1117      C1118   1.413       .  A
C1117      C1122   1.401       .  A
C1117     Br1124   1.933       .  S
C1118      C1119   1.413       .  A
C1119      C1120   1.404       .  A
C1119     Br1126   1.925       .  S
C1120      C1121   1.404       .  A
C1120     Br1125   1.923       .  S
C1121      C1122   1.413       .  A
C1122     Br1123   1.935       .  S
C1127      C1128   1.420       .  A
C1127      C1132   1.409       .  A
C1127     Br1134   1.936       .  S
C1128      C1129   1.424       .  A
C1128      C2441   1.505       .  S
C1129      C1130   1.413       .  A
C1129     Br2552   1.930       .  S
C1130      C1131   1.406       .  A
C1130     Br1135   1.933       .  S
C1131      C1132   1.409       .  A
C1132     Br1133   1.929       .  S
Br1136     C2545   1.930       .  S
C1137      C1138   1.409       .  A
C1137      C1142   1.403       .  A
C1137     Br1144   1.934       .  S
C1138      C1139   1.413       .  A
C1139      C1140   1.408       .  A
C1139     Br1146   1.929       .  S
C1140      C1141   1.408       .  A
C1140     Br1145   1.929       .  S
C1141      C1142   1.413       .  A
C1142     Br1143   1.921       .  S
C1147      C1148   1.410       .  A
C1147      C1152   1.420       .  A
C1147     Br1154   1.921       .  S
C1148      C1149   1.411       .  A
C1149      C1150   1.404       .  A
C1149     Br2572   1.920       .  S
C1150      C1151   1.416       .  A
C1150     Br1155   1.937       .  S
C1151      C1152   1.418       .  A
C1152     Br1153   1.928       .  S
Br1156     C2565   1.920   1_455  S
C1157      C1158   1.419       .  A
C1157      C1162   1.411       .  A
C1157     Br1164   1.921       .  S
C1158      C1159   1.423       .  A
C1159      C1160   1.420       .  A
C1159     Br1166   1.915       .  S
C1160      C1161   1.411       .  A
C1160     Br1165   1.932       .  S
C1161      C1162   1.412       .  A
C1162     Br1163   1.934       .  S
C1167      C1168   1.411       .  A
C1167      C1172   1.413       .  A
C1167     Br1174   1.928       .  S
C1168      C1169   1.423       .  A
C1169      C1170   1.397       .  A
C1169     Br1176   1.915       .  S
C1170      C1171   1.398       .  A
C1170     Br1175   1.943       .  S
C1171      C1172   1.412       .  A
C1172     Br1173   1.928       .  S
C1177      C1178   1.403       .  A
C1177      C1182   1.399       .  A
C1177     Br1184   1.925       .  S
C1178      C1179   1.411       .  A
C1179      C1180   1.421       .  A
C1179     Br1186   1.922       .  S
C1180      C1181   1.414       .  A
C1180     Br1185   1.924       .  S
C1181      C1182   1.410       .  A
C1182     Br1183   1.920       .  S
C1187      C1188   1.405       .  A
C1187      C1192   1.410       .  A
C1187     Br1194   1.938       .  S
C1188      C1189   1.404       .  A
C1189      C1190   1.413       .  A
C1189     Br1196   1.932       .  S
C1190      C1191   1.427       .  A
C1190     Br1195   1.935       .  S
C1191      C1192   1.429       .  A
C1191      C2346   1.507       .  S
C1192     Br1193   1.939       .  S
C1197      C1198   1.404       .  A
C1197      C1202   1.411       .  A
C1197     Br1204   1.927   1_556  S
C1198      C1199   1.410       .  A
C1199      C1200   1.403       .  A
C1199     Br1206   1.918       .  S
C1200      C1201   1.411       .  A
C1200     Br1205   1.932       .  S
C1201      C1202   1.418       .  A
C1202     Br1203   1.924       .  S
C1207      C1208   1.412       .  A
C1207      C1212   1.409       .  A
C1207     Br1214   1.934       .  S
C1208      C1209   1.416       .  A
C1209      C1210   1.407       .  A
C1209     Br1216   1.925       .  S
C1210      C1211   1.414       .  A
C1210     Br1215   1.934   1_556  S
C1211      C1212   1.421       .  A
C1212     Br2629   1.929       .  S
Br1213     C2628   1.929   1_455  S
C1217      C1218   1.408       .  A
C1217      C1222   1.417       .  A
C1217     Br1224   1.934       .  S
C1218      C1219   1.414       .  A
C1219      C1220   1.413       .  A
C1219     Br1226   1.939       .  S
C1220      C1221   1.424       .  A
C1220     Br2641   1.928       .  S
C1221      C1222   1.432       .  A
C1222     Br1223   1.932       .  S
Br1225     C2636   1.928   1_455  S
C1227      C1228   1.419       .  A
C1227      C1232   1.407       .  A
C1227     Br1234   1.930       .  S
C1228      C1229   1.409       .  A
C1229      C1230   1.399       .  A
C1230      C1231   1.403       .  A
C1230     Br1235   1.931   1_565  S
C1231      C1232   1.407       .  A
C1232     Br1233   1.932       .  S
C1237      C1238   1.404       .  A
C1237      C1242   1.391       .  A
C1237     Br1244   1.908       .  S
C1238      C1239   1.408       .  A
C1239      C1240   1.416       .  A
C1239     Br2662   1.923       .  S
C1240      C1241   1.415       .  A
C1240     Br1245   1.925       .  S
C1241      C1242   1.399       .  A
C1242     Br1243   1.919       .  S
Br1246     C2655   1.923   1_455  S
C1247      C1248   1.423       .  A
C1247      C1252   1.416       .  A
C1248      C1249   1.415       .  A
C1249      C1250   1.414       .  A
C1249     Br1256   1.933       .  S
C1250      C1251   1.413       .  A
C1250     Br1255   1.910       .  S
C1251      C1252   1.409       .  A
C1257      C1258   1.411       .  A
C1257      C1262   1.393       .  A
C1257     Br1264   1.936       .  S
C1258      C1259   1.420       .  A
C1259      C1260   1.418       .  A
C1259     Br1266   1.927       .  S
C1260      C1261   1.407       .  A
C1260     Br1265   1.920       .  S
C1261      C1262   1.408       .  A
C1262     Br1263   1.921       .  S
C1267      C1268   1.413       .  A
C1267      C1272   1.412       .  A
C1267     Br1274   1.928       .  S
C1268      C1269   1.404       .  A
C1269      C1270   1.398       .  A
C1269     Br1276   1.928       .  S
C1270      C1271   1.409       .  A
C1270     Br1275   1.919       .  S
C1271      C1272   1.410       .  A
C1272     Br1273   1.929       .  S
C1277      C1278   1.408   1_455  A
C1277      C1282   1.407   1_455  A
C1277     Br1284   1.922       .  S
C1278      C2695   1.412       .  A
C1279      C2694   1.412       .  A
C1279      C1280   1.421       .  A
C1279     Br1286   1.926       .  S
C1280      C1281   1.419       .  A
C1280     Br1285   1.928       .  S
C1281      C2698   1.413       .  A
C1282      C2697   1.413       .  A
C1282     Br1283   1.928   1_655  S
C1287      C1288   1.419       .  A
C1287      C1292   1.419       .  A
C1287     Br1294   1.927       .  S
C1288      C1289   1.413       .  A
C1289      C2706   1.399       .  A
C1289     Br1296   1.939       .  S
C1290      C2705   1.399       .  A
C1290      C1291   1.409       .  A
C1290     Br1295   1.908       .  S
C1291      C2708   1.411       .  A
C1292      C2707   1.411       .  A
C1292     Br1293   1.921       .  S
C1297      C1298   1.406       .  A
C1297      C1302   1.413       .  A
C1297     Br1304   1.928       .  S
C1298      C1299   1.404       .  A
C1299      C1300   1.401       .  A
C1299     Br1306   1.917       .  S
C1300      C1301   1.412       .  A
C1300     Br1305   1.933       .  S
C1301      C1302   1.418       .  A
C1302     Br1303   1.926       .  S
C1307      C1308   1.415       .  A
C1307      C1312   1.403       .  A
C1307     Br1314   1.934       .  S
C1308      C1309   1.419       .  A
C1309      C1310   1.419       .  A
C1309     Br1316   1.929       .  S
C1310      C1311   1.407       .  A
C1310     Br1315   1.911       .  S
C1311      C1312   1.411       .  A
C1312     Br1313   1.925       .  S
C1317      C1318   1.416       .  A
C1317      C1322   1.396       .  A
C1317     Br1324   1.937       .  S
C1318      C1319   1.415       .  A
C1319      C1320   1.407       .  A
C1319     Br1326   1.930       .  S
C1320      C1321   1.411       .  A
C1320     Br1325   1.916       .  S
C1321      C1322   1.408       .  A
C1322     Br1323   1.920       .  S
C1327      C1328   1.407       .  A
C1327      C1332   1.398       .  A
C1327     Br1334   1.917       .  S
C1328      C1329   1.408       .  A
C1329      C1330   1.410       .  A
C1329     Br1336   1.927       .  S
C1330      C1331   1.413       .  A
C1330     Br1335   1.928       .  S
C1331      C1332   1.409       .  A
C1332     Br1333   1.938       .  S
C1337      C1338   1.415       .  A
C1337      C1342   1.418       .  A
C1337     Br1344   1.925       .  S
C1338      C1339   1.421       .  A
C1339      C1340   1.393       .  A
C1339     Br1346   1.943       .  S
C1340      C1341   1.404       .  A
C1340     Br1345   1.933       .  S
C1341      C1342   1.413       .  A
C1342     Br1343   1.927       .  S
C1347      C1348   1.420       .  A
C1347      C1352   1.415       .  A
C1347     Br1354   1.930       .  S
C1348      C1349   1.418       .  A
C1349      C1350   1.420       .  A
C1349     Br1356   1.924       .  S
C1350      C1351   1.417       .  A
C1350     Br1355   1.932       .  S
C1351      C1352   1.415       .  A
C1352     Br1353   1.924       .  S
C1357      C1358   1.409       .  A
C1357      C1362   1.405       .  A
C1357     Br1364   1.935       .  S
C1358      C1359   1.421       .  A
C1359      C1360   1.428       .  A
C1359     Br1366   1.923       .  S
C1360      C1361   1.410       .  A
C1360     Br1365   1.920       .  S
C1361      C1362   1.412       .  A
C1362     Br1363   1.906       .  S
C1367      C1368   1.410       .  A
C1367      C1372   1.390       .  A
C1367     Br1374   1.931       .  S
C1368      C1369   1.412       .  A
C1369      C1370   1.409       .  A
C1369     Br1376   1.929       .  S
C1370      C1371   1.409       .  A
C1370     Br1375   1.927       .  S
C1371      C1372   1.400       .  A
C1372     Br1373   1.921       .  S
C1377      C1378   1.408       .  A
C1377      C1382   1.407       .  A
C1377     Br1384   1.934       .  S
C1378      C1379   1.413       .  A
C1379      C1380   1.418       .  A
C1379     Br1386   1.927       .  S
C1380      C1381   1.412       .  A
C1380     Br1385   1.924       .  S
C1381      C1382   1.414       .  A
C1382     Br2799   1.923       .  S
Br1383     C2798   1.924   1_455  S
C1387      C1388   1.419       .  A
C1387      C1392   1.399       .  A
C1387     Br1394   1.929       .  S
C1388      C1389   1.422       .  A
C1389      C1390   1.403       .  A
C1389     Br1396   1.929       .  S
C1390      C1391   1.406       .  A
C1390     Br1395   1.934       .  S
C1391      C1392   1.406       .  A
C1392     Br1393   1.935       .  S
C1397      C1398   1.406       .  A
C1397      C1402   1.406       .  A
C1397     Br1404   1.928       .  S
C1398      C1399   1.413       .  A
C1399      C1400   1.398       .  A
C1399     Br1406   1.924       .  S
C1400      C1401   1.406       .  A
C1400     Br1405   1.936       .  S
C1401      C1402   1.412       .  A
C1402     Br1403   1.930       .  S
C1407      C1408   1.412       .  A
C1407      C1412   1.408       .  A
C1407     Br1414   1.935       .  S
C1408      C1409   1.417       .  A
C1409      C1410   1.419       .  A
C1409     Br1416   1.930       .  S
C1410      C1411   1.411       .  A
C1410     Br1415   1.909       .  S
C1411      C1412   1.417       .  A
C1412     Br1413   1.915       .  S
N1417      C1422   1.351       .  A
N1417      C1421   1.360       .  A
N1417      H1449   1.038       .  S
N1418      C1425   1.356       .  A
N1418      C1426   1.349       .  A
N1419      C1424   1.358       .  A
N1419      C1423   1.348       .  A
N1419      H1450   1.041       .  S
N1420      C1427   1.345       .  A
N1420      C1428   1.352       .  A
C1421      C1429   1.386       .  A
C1421      C1437   1.423       .  A
C1422      C1438   1.421       .  A
C1422      C1430   1.388       .  A
C1423      C1431   1.389   1_655  A
C1423      C1440   1.414       .  A
C1424      C1439   1.414       .  A
C1424      C1432   1.385       .  A
C1425      C1437   1.420       .  A
C1425      C1433   1.386       .  A
C1426      C1440   1.417       .  A
C1426      C1434   1.388       .  A
C1427      C1435   1.390       .  A
C1427      C1438   1.413       .  A
C1428      C1436   1.384       .  A
C1428      C1439   1.410       .  A
C1429      C1430   1.372       .  A
C1429      H1441   1.079       .  S
C1430      H1442   1.082       .  S
C1431      C1432   1.375   1_455  A
C1431      H1443   1.081       .  S
C1432      H1444   1.082   1_655  S
C1433      C1434   1.370       .  A
C1433      H1445   1.081       .  S
C1434      H1446   1.082       .  S
C1435      C1436   1.374       .  A
C1435      H1447   1.082       .  S
C1436      H1448   1.082       .  S
C1437      C2116   1.514       .  S
C1438      C2109   1.481       .  S
C1439      C2086   1.500       .  S
C1440      C2099   1.483   1_655  S
N1451      C1456   1.349       .  A
N1451      C1455   1.360       .  A
N1451      H1483   1.041       .  S
N1452      C1459   1.357       .  A
N1452      C1460   1.346       .  A
N1453      C1458   1.362       .  A
N1453      C1457   1.352       .  A
N1453      H1484   1.040       .  S
N1454      C1461   1.352       .  A
N1454      C1462   1.357       .  A
C1455      C1463   1.384       .  A
C1455      C1471   1.422       .  A
C1456      C1472   1.419       .  A
C1456      C1464   1.390       .  A
C1457      C1465   1.392       .  A
C1457      C1474   1.425       .  A
C1458      C1473   1.420       .  A
C1458      C1466   1.384       .  A
C1459      C1471   1.420       .  A
C1459      C1467   1.383       .  A
C1460      C1474   1.414       .  A
C1460      C1468   1.389       .  A
C1461      C1469   1.389       .  A
C1461      C1472   1.420       .  A
C1462      C1470   1.384       .  A
C1462      C1473   1.419       .  A
C1463      C1464   1.382       .  A
C1463      H1475   1.082       .  S
C1464      H1476   1.082       .  S
C1465      C1466   1.377       .  A
C1465      H1477   1.082       .  S
C1466      H1478   1.082       .  S
C1467      C1468   1.372       .  A
C1467      H1479   1.081       .  S
C1468      H1480   1.079       .  S
C1469      C1470   1.377       .  A
C1469      H1481   1.082       .  S
C1470      H1482   1.082       .  S
C1471      C2059   1.525       .  S
C1472      C2049   1.489       .  S
C1473      C2066   1.517       .  S
C1474      C2076   1.481       .  S
O1485      C1493   1.260       .  A
O1485     Co1505   2.024       .  S
O1486      C1494   1.270       .  A
O1486     Co1506   2.018       .  S
O1487      C1495   1.269       .  A
O1487     Co1507   2.015   1_545  S
O1488      C1496   1.256       .  A
O1488     Co2216   1.959       .  S
O1489      C1495   1.259       .  A
O1489     Co1506   1.967       .  S
O1490      C1496   1.278       .  A
O1490     Co1505   2.053       .  S
O1491      C1494   1.258       .  A
O1491     Co1508   1.969       .  S
O1492      C1493   1.247       .  A
O1492     Co2215   1.979       .  S
C1493      C2119   1.511       .  S
C1494      C2006   1.474       .  S
C1495      C2106   1.468       .  S
C1496      C2019   1.499       .  S
O1497      C1510   1.259       .  A
O1497     Co1505   2.012       .  S
O1498      C1511   1.267       .  A
O1498     Co1506   2.034       .  S
O1499      C1512   1.269       .  A
O1499     Co2215   1.892       .  S
O1500      C1513   1.253       .  A
O1500     Co1508   1.960       .  S
O1501      C1513   1.267       .  A
O1501     Co1506   2.013       .  S
O1502      C1512   1.283       .  A
O1502     Co1505   2.048       .  S
O1503      C1510   1.244       .  A
O1503     Co2216   1.967       .  S
O1504      C1511   1.264       .  A
O1504     Co1507   2.003   1_545  S
Co1505     O2217   2.197       .  S
Co1506     O1509   2.122       .  S
Co1507     O2200   1.979       .  S
Co1507     O2207   1.892       .  S
Co1507     O1509   1.967   1_565  S
Co1508     O2196   1.959   1_545  S
Co1508     O2211   1.967   1_545  S
Co1508     O1509   1.996       .  S
O1509     Co2213   2.197   1_545  S
C1510      C2036   1.473       .  S
C1511      C2069   1.518       .  S
C1512      C2079   1.457       .  S
C1513      C2029   1.476       .  S
N1514      C1519   1.360       .  A
N1514      C1518   1.356       .  A
N1514      H1546   1.032       .  S
N1515      C1522   1.355       .  A
N1515      C1523   1.356       .  A
N1516      C1521   1.360       .  A
N1516      C1520   1.362       .  A
N1516      H1547   1.035       .  S
N1517      C1524   1.356       .  A
N1517      C1525   1.354       .  A
C1518      C1526   1.390       .  A
C1518      C1534   1.430       .  A
C1519      C1535   1.428       .  A
C1519      C1527   1.386       .  A
C1520      C1537   1.433       .  A
C1521      C1536   1.429       .  A
C1522      C1534   1.426       .  A
C1522      C1530   1.388       .  A
C1523      C1537   1.425       .  A
C1523      C1531   1.386       .  A
C1524      C1532   1.386       .  A
C1524      C1535   1.425       .  A
C1525      C1533   1.388       .  A
C1525      C1536   1.425       .  A
C1526      C1527   1.372       .  A
C1526      H1538   1.082       .  S
C1527      H1539   1.081       .  S
C1528      C1529   1.371       .  A
C1528      H1540   1.082       .  S
C1529      H1541   1.080       .  S
C1530      C1531   1.372       .  A
C1530      H1542   1.081       .  S
C1531      H1543   1.081       .  S
C1532      C1533   1.365       .  A
C1532      H1544   1.081       .  S
C1533      H1545   1.082       .  S
C1534      C2009   1.502       .  S
C1535      C2016   1.513       .  S
C1536      C1996   1.511       .  S
C1537      C1989   1.516       .  S
N1548      C1553   1.355       .  A
N1548      C1552   1.356       .  A
N1548      H1580   1.028       .  S
N1549      C1556   1.352       .  A
N1549      C1557   1.352       .  A
N1550      C1555   1.357       .  A
N1550      C1554   1.356       .  A
N1550      H1581   1.038       .  S
N1551      C1558   1.349       .  A
N1551      C1559   1.347       .  A
C1552      C1560   1.389       .  A
C1552      C1568   1.428       .  A
C1553      C1569   1.425       .  A
C1553      C1561   1.386       .  A
C1554      C1562   1.387       .  A
C1554      C1571   1.421       .  A
C1555      C1570   1.421       .  A
C1555      C1563   1.387       .  A
C1556      C1568   1.426       .  A
C1556      C1564   1.389       .  A
C1557      C1571   1.416       .  A
C1557      C1565   1.385       .  A
C1558      C1566   1.387       .  A
C1558      C1569   1.413       .  A
C1559      C1567   1.386       .  A
C1559      C1570   1.409       .  A
C1560      C1561   1.375       .  A
C1560      H1572   1.081       .  S
C1561      H1573   1.082       .  S
C1562      C1563   1.367       .  A
C1562      H1574   1.078       .  S
C1563      H1575   1.082       .  S
C1564      C1565   1.364       .  A
C1564      H1576   1.080       .  S
C1565      H1577   1.082       .  S
C1566      C1567   1.367       .  A
C1566      H1578   1.082       .  S
C1567      H1579   1.081       .  S
C1568      C1966   1.502       .  S
C1569      C1976   1.491       .  S
C1570      C2039   1.488       .  S
C1571      C2026   1.502       .  S
O1582     Co1602   2.017       .  S
O1583      C1591   1.267       .  A
O1583     Co1603   2.013       .  S
O1584      C1592   1.265       .  A
O1584     Co1604   1.893   1_655  S
O1585      C1593   1.259       .  A
O1585     Co1605   1.970       .  S
O1586     Co1603   2.138       .  S
O1587      C1593   1.278       .  A
O1587     Co1602   2.052       .  S
O1588      C1591   1.256       .  A
O1588     Co1605   1.969       .  S
O1589      C1590   1.261       .  A
O1589     Co1604   1.959       .  S
C1590      C2096   1.489       .  S
C1591      C1936   1.491       .  S
C1592      C1929   1.523       .  S
C1593      C2056   1.514       .  S
O1594      C1607   1.242       .  A
O1594     Co2310   1.909       .  S
O1595     Co2311   1.893       .  S
O1596      C1609   1.271   1_655  A
O1596     Co2312   2.055   1_655  S
O1597      C1610   1.279       .  A
O1597     Co2313   2.033       .  S
O1598      C1610   1.278       .  A
O1598     Co2311   2.008       .  S
O1599     Co2310   1.956       .  S
O1600      C1607   1.275       .  A
O1600     Co2313   2.062       .  S
O1601      C1608   1.295       .  A
O1601     Co2312   2.111       .  S
Co1602     O2302   1.909       .  S
Co1602     O2307   1.957       .  S
Co1602     O1606   2.010       .  S
Co1603     O2303   1.893       .  S
Co1603     O2306   2.008       .  S
Co1603     O1606   2.018       .  S
Co1604     O2304   2.055   1_455  S
Co1604     O2309   2.111       .  S
Co1605     O2305   2.034       .  S
Co1605     O2308   2.062       .  S
Co1605     O1606   2.056       .  S
C1607      C2046   1.493       .  S
C1608      C1946   1.482   1_455  S
C1609      C2089   1.489   1_455  S
C1610      C1959   1.508       .  S
O1611      C1619   1.266       .  A
O1611     Co1631   2.010   1_556  S
O1612      C1620   1.294       .  A
O1612     Co1632   2.115       .  S
O1613      C1621   1.252       .  A
O1613     Co1633   1.961       .  S
O1614     Co1634   1.990       .  S
O1615      C1621   1.273       .  A
O1615     Co1632   2.041   1_556  S
O1616      C1622   1.272   1_655  A
O1616     Co1631   2.020       .  S
O1617      C1620   1.265       .  A
O1617     Co1634   1.878       .  S
O1618     Co1633   1.970       .  S
C1619      C1919   1.490       .  S
C1620      C1849   1.481       .  S
C1621      C1906   1.480       .  S
C1622      C1856   1.496   1_455  S
O1623      C1636   1.255       .  A
O1623     Co1631   1.965   1_455  S
O1624      C1637   1.268       .  A
O1624     Co1632   1.979   1_556  S
O1625      C1638   1.273       .  A
O1625     Co1633   2.024       .  S
O1626      C1639   1.305       .  A
O1626     Co1634   2.137       .  S
O1627      C1639   1.270       .  A
O1627     Co1632   1.902       .  S
O1628     Co1631   1.964   1_556  S
O1629     Co1634   2.033       .  S
O1630      C1637   1.277       .  A
O1630     Co1633   2.026       .  S
Co1632     O1635   2.026       .  S
Co1633     O1635   2.020   1_556  S
Co1634     O1635   2.025       .  S
C1636      C1876   1.487   1_455  S
C1637      C1886   1.500       .  S
C1639      C1866   1.519       .  S
N1640      C1645   1.349       .  A
N1640      C1644   1.349       .  A
N1640      H1672   1.041       .  S
N1641      C1648   1.353       .  A
N1641      C1649   1.348       .  A
N1642      C1647   1.357       .  A
N1642      C1646   1.353       .  A
N1642      H1673   1.042       .  S
N1643      C1650   1.349       .  A
N1643      C1651   1.350       .  A
C1644      C1652   1.385       .  A
C1644      C1660   1.409       .  A
C1645      C1661   1.412       .  A
C1645      C1653   1.389       .  A
C1646      C1654   1.389       .  A
C1646      C1663   1.421       .  A
C1647      C1662   1.419       .  A
C1647      C1655   1.385       .  A
C1648      C1660   1.414       .  A
C1648      C1656   1.384       .  A
C1649      C1663   1.413       .  A
C1649      C1657   1.387       .  A
C1650      C1658   1.387       .  A
C1650      C1661   1.414       .  A
C1651      C1659   1.386       .  A
C1651      C1662   1.410       .  A
C1652      C1653   1.380       .  A
C1652      H1664   1.082       .  S
C1653      H1665   1.082       .  S
C1654      C1655   1.384       .  A
C1654      H1666   1.082       .  S
C1655      H1667   1.082       .  S
C1656      C1657   1.377       .  A
C1656      H1668   1.081       .  S
C1657      H1669   1.082       .  S
C1658      C1659   1.372       .  A
C1658      H1670   1.081       .  S
C1659      H1671   1.082       .  S
C1660      C1839   1.495       .  S
C1661      C1826   1.490       .  S
C1662      C1889   1.501       .  S
C1663      C1896   1.491       .  S
N1674      C1679   1.352       .  A
N1674      C1678   1.352       .  A
N1674      H1706   1.044       .  S
N1675      C1682   1.352       .  A
N1675      C1683   1.350       .  A
N1676      C1681   1.355       .  A
N1676      C1680   1.360       .  A
N1676      H1707   1.036       .  S
N1677      C1684   1.356       .  A
N1677      C1685   1.350       .  A
C1678      C1686   1.387       .  A
C1678      C1694   1.411       .  A
C1679      C1695   1.410       .  A
C1679      C1687   1.386       .  A
C1680      C1688   1.388       .  A
C1680      C1697   1.428       .  A
C1681      C1696   1.422       .  A
C1681      C1689   1.386       .  A
C1682      C1694   1.415       .  A
C1682      C1690   1.384       .  A
C1683      C1697   1.425       .  A
C1683      C1691   1.390       .  A
C1684      C1692   1.387       .  A
C1684      C1695   1.419       .  A
C1685      C1693   1.385       .  A
C1685      C1696   1.414       .  A
C1686      C1687   1.374       .  A
C1686      H1698   1.082       .  S
C1687      H1699   1.082       .  S
C1688      C1689   1.378       .  A
C1688      H1700   1.082       .  S
C1689      H1701   1.082       .  S
C1690      C1691   1.376       .  A
C1690      H1702   1.082       .  S
C1691      H1703   1.081       .  S
C1692      C1693   1.370       .  A
C1692      H1704   1.081       .  S
C1693      H1705   1.082       .  S
C1694      C1909   1.501       .  S
C1695      C1916   1.531       .  S
C1696      C1819   1.490       .  S
C1697      C1809   1.509       .  S
O1708      C1716   1.256       .  A
O1708     Co1728   1.964       .  S
O1709      C1717   1.258       .  A
O1709     Co1729   2.035       .  S
O1710      C1718   1.240       .  A
O1710     Co2438   1.951   1_545  S
O1711      C1719   1.272       .  A
O1711     Co1731   2.021       .  S
O1712      C1718   1.264       .  A
O1712     Co1729   2.033       .  S
O1713      C1719   1.252       .  A
O1713     Co1728   1.945       .  S
O1714      C1717   1.242       .  A
O1714     Co2439   1.962   1_545  S
O1715      C1716   1.273       .  A
O1715     Co1730   2.033       .  S
C1716      C1979   1.474       .  S
C1717      C1806   1.515       .  S
C1718      C1969   1.487       .  S
C1719      C1829   1.469       .  S
O1720      C1733   1.264       .  A
O1720     Co1728   2.017       .  S
O1721      C1734   1.296       .  A
O1721     Co1729   2.089       .  S
O1722      C1735   1.264       .  A
O1722     Co1730   1.995       .  S
O1723      C1736   1.268       .  A
O1723     Co2439   1.891   1_545  S
O1724      C1736   1.300       .  A
O1724     Co1729   2.087       .  S
O1725      C1735   1.264       .  A
O1725     Co1728   2.001       .  S
O1726      C1733   1.257       .  A
O1726     Co1731   1.986       .  S
O1727      C1734   1.268       .  A
O1727     Co2438   1.915   1_545  S
Co1728     O1732   2.096       .  S
Co1729     O2440   2.266   1_545  S
Co1730     O2418   1.951       .  S
Co1730     O2435   1.915       .  S
Co1730     O1732   1.940       .  S
Co1731     O2422   1.962       .  S
Co1731     O2431   1.891       .  S
Co1731     O1732   1.916       .  S
O1732     Co2437   2.266       .  S
C1734      C1986   1.496       .  S
C1735      C1999   1.491       .  S
N1737      C1742   1.352       .  A
N1737      C1741   1.357       .  A
N1737      H1769   1.039       .  S
N1738      C1745   1.356       .  A
N1738      C1746   1.351       .  A
N1739      C1744   1.362       .  A
N1739      C1743   1.354       .  A
N1739      H1770   1.042       .  S
N1740      C1747   1.348       .  A
N1740      C1748   1.354       .  A
C1741      C1749   1.388       .  A
C1741      C1757   1.427       .  A
C1742      C1758   1.423       .  A
C1742      C1750   1.387       .  A
C1743      C1751   1.389       .  A
C1743      C1760   1.426       .  A
C1744      C1759   1.429       .  A
C1744      C1752   1.386       .  A
C1745      C1757   1.422       .  A
C1745      C1753   1.386       .  A
C1746      C1760   1.417       .  A
C1746      C1754   1.388       .  A
C1747      C1755   1.388       .  A
C1747      C1758   1.417       .  A
C1748      C1756   1.384       .  A
C1748      C1759   1.414       .  A
C1749      C1750   1.375       .  A
C1749      H1761   1.079       .  S
C1750      H1762   1.082       .  S
C1751      C1752   1.371       .  A
C1751      H1763   1.080       .  S
C1752      H1764   1.081       .  S
C1753      C1754   1.368       .  A
C1753      H1765   1.082       .  S
C1754      H1766   1.082       .  S
C1755      C1756   1.376       .  A
C1755      H1767   1.082       .  S
C1756      H1768   1.082       .  S
C1757      C1859   1.513       .  S
C1758      C1846   1.492       .  S
C1759      C1956   1.524       .  S
C1760      C1949   1.492       .  S
N1771      C1776   1.360       .  A
N1771      C1775   1.350       .  A
N1771      H1803   1.037       .  S
N1772      C1779   1.350       .  A
N1772      C1780   1.356       .  A
N1773      C1778   1.352       .  A
N1773      C1777   1.360       .  A
N1773      H1804   1.034       .  S
N1774      C1781   1.352       .  A
N1774      C1782   1.347       .  A
C1775      C1783   1.387       .  A
C1775      C1791   1.418       .  A
C1776      C1792   1.426       .  A
C1776      C1784   1.386       .  A
C1777      C1785   1.385       .  A
C1777      C1794   1.426       .  A
C1778      C1793   1.428       .  A
C1778      C1786   1.390       .  A
C1779      C1791   1.417       .  A
C1779      C1787   1.388       .  A
C1780      C1794   1.421       .  A
C1780      C1788   1.386       .  A
C1781      C1789   1.384       .  A
C1781      C1792   1.412       .  A
C1782      C1790   1.388       .  A
C1782      C1793   1.413       .  A
C1783      C1784   1.376       .  A
C1783      H1795   1.083       .  S
C1784      H1796   1.081       .  S
C1785      C1786   1.377       .  A
C1785      H1797   1.081       .  S
C1786      H1798   1.082       .  S
C1787      C1788   1.365       .  A
C1787      H1799   1.082       .  S
C1788      H1800   1.082       .  S
C1789      C1790   1.372       .  A
C1789      H1801   1.082       .  S
C1790      H1802   1.082       .  S
C1791      C1939   1.481       .  S
C1792      C1926   1.513       .  S
C1793      C1879   1.485       .  S
C1794      C1869   1.514       .  S
C1805      C1806   1.426       .  A
C1805      C1810   1.409       .  A
C1805     Br1812   1.931   1_545  S
C1806      C1807   1.422       .  A
C1807      C1808   1.421       .  A
C1807     Br1814   1.928       .  S
C1808      C1809   1.412       .  A
C1808     Br1813   1.930       .  S
C1809      C1810   1.404       .  A
C1810     Br1811   1.930   1_545  S
C1815      C1816   1.420       .  A
C1815      C1820   1.406       .  A
C1815     Br1822   1.935   1_545  S
C1816      C1817   1.419       .  A
C1817      C1818   1.410       .  A
C1818      C1819   1.406       .  A
C1818     Br1823   1.929       .  S
C1819      C1820   1.408       .  A
C1820     Br1821   1.936       .  S
C1825      C1826   1.413       .  A
C1825      C1830   1.401       .  A
C1825     Br1832   1.933       .  S
C1826      C1827   1.413       .  A
C1827      C1828   1.404       .  A
C1827     Br1834   1.925       .  S
C1828      C1829   1.404       .  A
C1828     Br1833   1.923       .  S
C1829      C1830   1.413       .  A
C1830     Br1831   1.935       .  S
C1835      C1836   1.420       .  A
C1835      C1840   1.409       .  A
C1835     Br1842   1.936       .  S
C1836      C1837   1.424       .  A
C1837      C1838   1.413       .  A
C1838      C1839   1.406       .  A
C1838     Br1843   1.933       .  S
C1839      C1840   1.409       .  A
C1840     Br1841   1.929       .  S
C1845      C1846   1.409       .  A
C1845      C1850   1.403       .  A
C1845     Br1852   1.934       .  S
C1846      C1847   1.413       .  A
C1847      C1848   1.408       .  A
C1847     Br1854   1.929       .  S
C1848      C1849   1.408       .  A
C1848     Br1853   1.929       .  S
C1849      C1850   1.413       .  A
C1850     Br1851   1.921       .  S
C1855      C1856   1.410       .  A
C1855      C1860   1.420       .  A
C1855     Br1862   1.921       .  S
C1856      C1857   1.411       .  A
C1857      C1858   1.404       .  A
C1858      C1859   1.416       .  A
C1858     Br1863   1.937       .  S
C1859      C1860   1.418       .  A
C1860     Br1861   1.928       .  S
C1865      C1866   1.419       .  A
C1865      C1870   1.411       .  A
C1865     Br1872   1.921       .  S
C1866      C1867   1.423       .  A
C1867      C1868   1.420       .  A
C1867     Br1874   1.915       .  S
C1868      C1869   1.412       .  A
C1868     Br1873   1.932       .  S
C1869      C1870   1.412       .  A
C1870     Br1871   1.934       .  S
C1875      C1876   1.411       .  A
C1875      C1880   1.413       .  A
C1875     Br1882   1.928   1_655  S
C1876      C1877   1.423       .  A
C1877      C1878   1.397       .  A
C1877     Br1884   1.915       .  S
C1878      C1879   1.398       .  A
C1878     Br1883   1.943       .  S
C1879      C1880   1.412       .  A
C1880     Br1881   1.928       .  S
C1885      C1886   1.403       .  A
C1885      C1890   1.399       .  A
C1885     Br1892   1.925       .  S
C1886      C1887   1.411       .  A
C1887      C1888   1.421       .  A
C1887     Br1894   1.923       .  S
C1888      C1889   1.414       .  A
C1888     Br1893   1.924       .  S
C1889      C1890   1.410       .  A
C1890     Br1891   1.920       .  S
C1895      C1896   1.405       .  A
C1895      C1900   1.410       .  A
C1895     Br1902   1.938       .  S
C1896      C1897   1.404       .  A
C1897      C1898   1.413       .  A
C1897     Br1904   1.932       .  S
C1898      C1899   1.427       .  A
C1898     Br1903   1.935       .  S
C1899      C1900   1.429       .  A
C1900     Br1901   1.939       .  S
C1905      C1906   1.404       .  A
C1905      C1910   1.411       .  A
C1905     Br1912   1.927   1_556  S
C1906      C1907   1.410       .  A
C1907      C1908   1.403       .  A
C1907     Br1914   1.918       .  S
C1908      C1909   1.411       .  A
C1908     Br1913   1.932       .  S
C1909      C1910   1.418       .  A
C1910     Br1911   1.924       .  S
C1915      C1916   1.412       .  A
C1915      C1920   1.410       .  A
C1915     Br1922   1.934       .  S
C1916      C1917   1.416       .  A
C1917      C1918   1.407       .  A
C1917     Br1924   1.925       .  S
C1918      C1919   1.414       .  A
C1918     Br1923   1.934   1_556  S
C1919      C1920   1.421       .  A
C1925      C1926   1.408       .  A
C1925      C1930   1.417       .  A
C1925     Br1932   1.934       .  S
C1926      C1927   1.414       .  A
C1927      C1928   1.413       .  A
C1927     Br1934   1.939       .  S
C1928      C1929   1.424       .  A
C1929      C1930   1.432       .  A
C1930     Br1931   1.932       .  S
C1935      C1936   1.419       .  A
C1935      C1940   1.407       .  A
C1935     Br1942   1.930       .  S
C1936      C1937   1.409       .  A
C1937      C1938   1.399       .  A
C1937     Br2652   1.910       .  S
C1938      C1939   1.403       .  A
C1938     Br1943   1.931       .  S
C1939      C1940   1.407       .  A
C1940     Br1941   1.932       .  S
Br1944     C2645   1.910   1_545  S
C1945      C1946   1.404       .  A
C1945      C1950   1.391       .  A
C1945     Br1952   1.908       .  S
C1946      C1947   1.408       .  A
C1947      C1948   1.415       .  A
C1948      C1949   1.415       .  A
C1948     Br1953   1.925       .  S
C1949      C1950   1.399       .  A
C1950     Br1951   1.919       .  S
C1955      C1956   1.423       .  A
C1955      C1960   1.416       .  A
C1955     Br2670   1.929       .  S
C1956      C1957   1.415       .  A
C1957      C1958   1.414       .  A
C1957     Br1964   1.933       .  S
C1958      C1959   1.413       .  A
C1958     Br1963   1.910       .  S
C1959      C1960   1.409       .  A
C1960     Br2669   1.920       .  S
Br1961     C2668   1.920       .  S
Br1962     C2663   1.929       .  S
C1965      C1966   1.411       .  A
C1965      C1970   1.393       .  A
C1965     Br1972   1.936       .  S
C1966      C1967   1.420       .  A
C1967      C1968   1.418       .  A
C1967     Br1974   1.927       .  S
C1968      C1969   1.407       .  A
C1968     Br1973   1.920       .  S
C1969      C1970   1.408       .  A
C1970     Br1971   1.921       .  S
C1975      C1976   1.413       .  A
C1975      C1980   1.412       .  A
C1975     Br1982   1.928       .  S
C1976      C1977   1.404       .  A
C1977      C1978   1.398       .  A
C1977     Br1984   1.928       .  S
C1978      C1979   1.409       .  A
C1978     Br1983   1.919       .  S
C1979      C1980   1.410       .  A
C1980     Br1981   1.928       .  S
C1985      C1986   1.408       .  A
C1985      C1990   1.407       .  A
C1985     Br1992   1.922       .  S
C1987      C1988   1.422       .  A
C1987     Br1994   1.926       .  S
C1988      C1989   1.419       .  A
C1988     Br1993   1.928       .  S
C1990     Br1991   1.928       .  S
C1995      C1996   1.419       .  A
C1995      C2000   1.419       .  A
C1995     Br2002   1.927       .  S
C1996      C1997   1.413       .  A
C1997     Br2004   1.939       .  S
C1998      C1999   1.409       .  A
C1998     Br2003   1.908       .  S
C2000     Br2001   1.921       .  S
C2005      C2006   1.406       .  A
C2005      C2010   1.412       .  A
C2005     Br2012   1.928       .  S
C2006      C2007   1.404       .  A
C2007      C2008   1.401       .  A
C2007     Br2014   1.917       .  S
C2008      C2009   1.412       .  A
C2008     Br2013   1.933       .  S
C2009      C2010   1.418       .  A
C2010     Br2011   1.926       .  S
C2015      C2016   1.415       .  A
C2015      C2020   1.403       .  A
C2015     Br2022   1.934       .  S
C2016      C2017   1.419       .  A
C2017      C2018   1.419       .  A
C2017     Br2024   1.929       .  S
C2018      C2019   1.407       .  A
C2018     Br2023   1.911       .  S
C2019      C2020   1.411       .  A
C2020     Br2021   1.925       .  S
C2025      C2026   1.416       .  A
C2025      C2030   1.396       .  A
C2025     Br2032   1.937       .  S
C2026      C2027   1.415       .  A
C2027      C2028   1.407       .  A
C2027     Br2034   1.930       .  S
C2028      C2029   1.411       .  A
C2028     Br2033   1.916       .  S
C2029      C2030   1.408       .  A
C2030     Br2031   1.920       .  S
C2035      C2036   1.407       .  A
C2035      C2040   1.398       .  A
C2035     Br2042   1.917       .  S
C2036      C2037   1.408       .  A
C2037      C2038   1.410       .  A
C2037     Br2044   1.927       .  S
C2038      C2039   1.413       .  A
C2038     Br2043   1.928       .  S
C2039      C2040   1.409       .  A
C2040     Br2041   1.938       .  S
C2045      C2046   1.415       .  A
C2045      C2050   1.418       .  A
C2045     Br2052   1.925       .  S
C2046      C2047   1.421       .  A
C2047      C2048   1.393       .  A
C2047     Br2054   1.943       .  S
C2048      C2049   1.404       .  A
C2048     Br2053   1.933       .  S
C2049      C2050   1.413       .  A
C2050     Br2051   1.927       .  S
C2055      C2056   1.420       .  A
C2055      C2060   1.415       .  A
C2055     Br2062   1.930       .  S
C2056      C2057   1.418       .  A
C2057      C2058   1.420       .  A
C2057     Br2064   1.924       .  S
C2058      C2059   1.417       .  A
C2058     Br2063   1.932       .  S
C2059      C2060   1.415       .  A
C2060     Br2061   1.925       .  S
C2065      C2066   1.409       .  A
C2065      C2070   1.405       .  A
C2065     Br2072   1.935       .  S
C2066      C2067   1.421       .  A
C2067      C2068   1.428       .  A
C2067     Br2074   1.923       .  S
C2068      C2069   1.410       .  A
C2068     Br2073   1.920       .  S
C2069      C2070   1.412       .  A
C2070     Br2071   1.906       .  S
C2075      C2076   1.410       .  A
C2075      C2080   1.390       .  A
C2075     Br2082   1.931       .  S
C2076      C2077   1.412       .  A
C2077      C2078   1.409       .  A
C2077     Br2084   1.929       .  S
C2078      C2079   1.409       .  A
C2078     Br2083   1.927       .  S
C2079      C2080   1.400       .  A
C2080     Br2081   1.922       .  S
C2085      C2086   1.407       .  A
C2085      C2090   1.407       .  A
C2085     Br2092   1.934   1_655  S
C2086      C2087   1.413       .  A
C2087      C2088   1.418       .  A
C2087     Br2094   1.927       .  S
C2088      C2089   1.412       .  A
C2088     Br2093   1.924       .  S
C2089      C2090   1.415       .  A
C2095      C2096   1.419       .  A
C2095      C2100   1.399   1_455  A
C2095     Br2102   1.929       .  S
C2096      C2097   1.422       .  A
C2097      C2098   1.403       .  A
C2097     Br2104   1.929       .  S
C2098      C2099   1.406       .  A
C2098     Br2103   1.934       .  S
C2099      C2100   1.405   1_455  A
C2100     Br2101   1.935       .  S
C2105      C2106   1.406       .  A
C2105      C2110   1.406       .  A
C2105     Br2112   1.928       .  S
C2106      C2107   1.413       .  A
C2107      C2108   1.398       .  A
C2107     Br2114   1.924       .  S
C2108      C2109   1.406       .  A
C2108     Br2113   1.936       .  S
C2109      C2110   1.412       .  A
C2110     Br2111   1.930       .  S
C2115      C2116   1.412       .  A
C2115      C2120   1.408       .  A
C2115     Br2122   1.935       .  S
C2116      C2117   1.417       .  A
C2117      C2118   1.419       .  A
C2117     Br2124   1.930       .  S
C2118      C2119   1.411       .  A
C2118     Br2123   1.909       .  S
C2119      C2120   1.417       .  A
C2120     Br2121   1.914       .  S
N2125      C2130   1.351       .  A
N2125      C2129   1.360       .  A
N2125      H2157   1.038       .  S
N2126      C2133   1.356       .  A
N2126      C2134   1.349       .  A
N2127      C2132   1.358       .  A
N2127      C2131   1.348       .  A
N2127      H2158   1.041       .  S
N2128      C2135   1.345       .  A
N2128      C2136   1.352       .  A
C2129      C2137   1.386       .  A
C2129      C2145   1.423       .  A
C2130      C2146   1.420       .  A
C2130      C2138   1.388       .  A
C2131      C2139   1.389   1_655  A
C2131      C2148   1.414       .  A
C2132      C2147   1.414       .  A
C2132      C2140   1.385       .  A
C2133      C2145   1.420       .  A
C2133      C2141   1.386       .  A
C2134      C2148   1.417       .  A
C2134      C2142   1.388       .  A
C2135      C2143   1.390       .  A
C2135      C2146   1.413       .  A
C2136      C2144   1.384       .  A
C2136      C2147   1.410       .  A
C2137      C2138   1.372       .  A
C2137      H2149   1.079       .  S
C2138      H2150   1.082       .  S
C2139      C2140   1.375   1_455  A
C2139      H2151   1.081       .  S
C2140      H2152   1.082   1_655  S
C2141      C2142   1.370       .  A
C2141      H2153   1.081       .  S
C2142      H2154   1.082       .  S
C2143      C2144   1.374       .  A
C2143      H2155   1.082       .  S
C2144      H2156   1.082       .  S
C2145      C2824   1.514       .  S
C2146      C2817   1.481       .  S
C2147      C2794   1.501       .  S
C2148      C2807   1.483   1_655  S
N2159      C2164   1.349       .  A
N2159      C2163   1.360       .  A
N2159      H2191   1.041       .  S
N2160      C2167   1.357       .  A
N2160      C2168   1.346       .  A
N2161      C2166   1.362       .  A
N2161      C2165   1.352       .  A
N2161      H2192   1.040       .  S
N2162      C2169   1.352       .  A
N2162      C2170   1.357       .  A
C2163      C2171   1.384       .  A
C2163      C2179   1.422       .  A
C2164      C2180   1.419       .  A
C2164      C2172   1.390       .  A
C2165      C2173   1.392       .  A
C2165      C2182   1.425       .  A
C2166      C2181   1.420       .  A
C2166      C2174   1.384       .  A
C2167      C2179   1.420       .  A
C2167      C2175   1.383       .  A
C2168      C2182   1.414       .  A
C2168      C2176   1.389       .  A
C2169      C2177   1.389       .  A
C2169      C2180   1.420       .  A
C2170      C2178   1.384       .  A
C2170      C2181   1.419       .  A
C2171      C2172   1.382       .  A
C2171      H2183   1.082       .  S
C2172      H2184   1.082       .  S
C2173      C2174   1.377       .  A
C2173      H2185   1.082       .  S
C2174      H2186   1.082       .  S
C2175      C2176   1.372       .  A
C2175      H2187   1.081       .  S
C2176      H2188   1.079       .  S
C2177      C2178   1.377       .  A
C2177      H2189   1.082       .  S
C2178      H2190   1.082       .  S
C2179      C2767   1.524       .  S
C2180      C2757   1.489       .  S
C2181      C2774   1.517       .  S
C2182      C2784   1.481       .  S
O2193      C2201   1.260       .  A
O2193     Co2213   2.024       .  S
O2194      C2202   1.270       .  A
O2194     Co2214   2.018       .  S
O2195      C2203   1.269       .  A
O2195     Co2215   2.015       .  S
O2196      C2204   1.256       .  A
O2197      C2203   1.259       .  A
O2197     Co2214   1.967       .  S
O2198      C2204   1.278       .  A
O2198     Co2213   2.052       .  S
O2199      C2202   1.258       .  A
O2199     Co2216   1.969       .  S
O2200      C2201   1.247       .  A
C2201      C2827   1.511       .  S
C2202      C2714   1.474       .  S
C2203      C2814   1.468       .  S
C2204      C2727   1.499       .  S
O2205      C2218   1.259       .  A
O2205     Co2213   2.012       .  S
O2206      C2219   1.267       .  A
O2206     Co2214   2.034       .  S
O2207      C2220   1.269       .  A
O2208      C2221   1.253       .  A
O2208     Co2216   1.960       .  S
O2209      C2221   1.267       .  A
O2209     Co2214   2.013       .  S
O2210      C2220   1.283       .  A
O2210     Co2213   2.048       .  S
O2211      C2218   1.244       .  A
O2212      C2219   1.264       .  A
O2212     Co2215   2.003       .  S
Co2214     O2217   2.122       .  S
Co2215     O2217   1.967       .  S
Co2216     O2217   1.996       .  S
C2218      C2744   1.473       .  S
C2219      C2777   1.518       .  S
C2220      C2787   1.457       .  S
C2221      C2737   1.476       .  S
N2222      C2227   1.360       .  A
N2222      C2226   1.356       .  A
N2222      H2254   1.032       .  S
N2223      C2230   1.355       .  A
N2223      C2231   1.356       .  A
N2224      C2229   1.360       .  A
N2224      C2228   1.362       .  A
N2224      H2255   1.036       .  S
N2225      C2232   1.356       .  A
N2225      C2233   1.354       .  A
C2226      C2234   1.390       .  A
C2226      C2242   1.430       .  A
C2227      C2243   1.428       .  A
C2227      C2235   1.386       .  A
C2228      C2245   1.433       .  A
C2229      C2244   1.429       .  A
C2230      C2242   1.426       .  A
C2230      C2238   1.388       .  A
C2231      C2245   1.425       .  A
C2231      C2239   1.386       .  A
C2232      C2240   1.386       .  A
C2232      C2243   1.425       .  A
C2233      C2241   1.388       .  A
C2233      C2244   1.425       .  A
C2234      C2235   1.372       .  A
C2234      H2246   1.082       .  S
C2235      H2247   1.081       .  S
C2236      C2237   1.371       .  A
C2236      H2248   1.082       .  S
C2237      H2249   1.080       .  S
C2238      C2239   1.372       .  A
C2238      H2250   1.081       .  S
C2239      H2251   1.081       .  S
C2240      C2241   1.365       .  A
C2240      H2252   1.081       .  S
C2241      H2253   1.082       .  S
C2242      C2717   1.501       .  S
C2243      C2724   1.513       .  S
C2244      C2704   1.511       .  S
C2245      C2697   1.516       .  S
N2256      C2261   1.355       .  A
N2256      C2260   1.356       .  A
N2256      H2288   1.028       .  S
N2257      C2264   1.352       .  A
N2257      C2265   1.352       .  A
N2258      C2263   1.357       .  A
N2258      C2262   1.356       .  A
N2258      H2289   1.038       .  S
N2259      C2266   1.349       .  A
N2259      C2267   1.347       .  A
C2260      C2268   1.389       .  A
C2260      C2276   1.428       .  A
C2261      C2277   1.425       .  A
C2261      C2269   1.386       .  A
C2262      C2270   1.387       .  A
C2262      C2279   1.421       .  A
C2263      C2278   1.421       .  A
C2263      C2271   1.387       .  A
C2264      C2276   1.426       .  A
C2264      C2272   1.389       .  A
C2265      C2279   1.416       .  A
C2265      C2273   1.385       .  A
C2266      C2274   1.387       .  A
C2266      C2277   1.413       .  A
C2267      C2275   1.386       .  A
C2267      C2278   1.409       .  A
C2268      C2269   1.375       .  A
C2268      H2280   1.081       .  S
C2269      H2281   1.082       .  S
C2270      C2271   1.367       .  A
C2270      H2282   1.078       .  S
C2271      H2283   1.082       .  S
C2272      C2273   1.364       .  A
C2272      H2284   1.080       .  S
C2273      H2285   1.082       .  S
C2274      C2275   1.367       .  A
C2274      H2286   1.082       .  S
C2275      H2287   1.081       .  S
C2276      C2674   1.502       .  S
C2277      C2684   1.491       .  S
C2278      C2747   1.489       .  S
C2279      C2734   1.502       .  S
O2290     Co2310   2.018   1_565  S
O2291      C2299   1.267   1_545  A
O2291     Co2311   2.012       .  S
O2292      C2300   1.265       .  A
O2292     Co2312   1.893   1_665  S
O2293      C2301   1.259       .  A
O2293     Co2313   1.970   1_565  S
O2294     Co2311   2.138   1_565  S
O2295      C2301   1.278       .  A
O2295     Co2310   2.052   1_565  S
O2296      C2299   1.256       .  A
O2296     Co2313   1.968   1_565  S
O2297      C2298   1.261       .  A
O2297     Co2312   1.959   1_565  S
C2298      C2804   1.489       .  S
C2299      C2644   1.491       .  S
C2300      C2637   1.523       .  S
C2301      C2764   1.514       .  S
O2302      C2315   1.242       .  A
O2304      C2317   1.271   1_655  A
O2305      C2318   1.279       .  A
O2306      C2318   1.278       .  A
O2308      C2315   1.275       .  A
O2309      C2316   1.295       .  A
Co2310     O2314   2.010       .  S
Co2311     O2314   2.018       .  S
Co2313     O2314   2.056       .  S
C2315      C2754   1.493       .  S
C2316      C2654   1.482   1_455  S
C2317      C2797   1.489   1_455  S
C2318      C2667   1.508       .  S
O2319      C2327   1.266       .  A
O2319     Co2339   2.010   1_556  S
O2320      C2328   1.294       .  A
O2320     Co2340   2.115       .  S
O2321      C2329   1.252       .  A
O2321     Co2341   1.961       .  S
O2322     Co2342   1.990       .  S
O2323      C2329   1.273       .  A
O2323     Co2340   2.041   1_556  S
O2324      C2330   1.272   1_655  A
O2324     Co2339   2.020       .  S
O2325      C2328   1.265       .  A
O2325     Co2342   1.878       .  S
O2326     Co2341   1.970       .  S
C2327      C2627   1.490       .  S
C2328      C2557   1.481       .  S
C2329      C2614   1.480       .  S
C2330      C2564   1.496   1_455  S
O2331      C2344   1.255       .  A
O2331     Co2339   1.965   1_455  S
O2332      C2345   1.268       .  A
O2332     Co2340   1.979   1_556  S
O2333      C2346   1.273       .  A
O2333     Co2341   2.024       .  S
O2334      C2347   1.305       .  A
O2334     Co2342   2.137       .  S
O2335      C2347   1.270       .  A
O2335     Co2340   1.902       .  S
O2336     Co2339   1.964   1_556  S
O2337     Co2342   2.033       .  S
O2338      C2345   1.277       .  A
O2338     Co2341   2.026       .  S
Co2340     O2343   2.026       .  S
Co2341     O2343   2.020   1_556  S
Co2342     O2343   2.025       .  S
C2344      C2584   1.487   1_455  S
C2345      C2594   1.500       .  S
C2347      C2574   1.519       .  S
N2348      C2353   1.349       .  A
N2348      C2352   1.349       .  A
N2348      H2380   1.041       .  S
N2349      C2356   1.353       .  A
N2349      C2357   1.348       .  A
N2350      C2355   1.357       .  A
N2350      C2354   1.353       .  A
N2350      H2381   1.042       .  S
N2351      C2358   1.349       .  A
N2351      C2359   1.350       .  A
C2352      C2360   1.385       .  A
C2352      C2368   1.409       .  A
C2353      C2369   1.412       .  A
C2353      C2361   1.389       .  A
C2354      C2362   1.389       .  A
C2354      C2371   1.421       .  A
C2355      C2370   1.419       .  A
C2355      C2363   1.385       .  A
C2356      C2368   1.414       .  A
C2356      C2364   1.384       .  A
C2357      C2371   1.413       .  A
C2357      C2365   1.387       .  A
C2358      C2366   1.387       .  A
C2358      C2369   1.414       .  A
C2359      C2367   1.386       .  A
C2359      C2370   1.410       .  A
C2360      C2361   1.380       .  A
C2360      H2372   1.082       .  S
C2361      H2373   1.082       .  S
C2362      C2363   1.384       .  A
C2362      H2374   1.082       .  S
C2363      H2375   1.082       .  S
C2364      C2365   1.377       .  A
C2364      H2376   1.081       .  S
C2365      H2377   1.082       .  S
C2366      C2367   1.372       .  A
C2366      H2378   1.081       .  S
C2367      H2379   1.082       .  S
C2368      C2547   1.495       .  S
C2369      C2534   1.490       .  S
C2370      C2597   1.501       .  S
C2371      C2604   1.491       .  S
N2382      C2387   1.352       .  A
N2382      C2386   1.352       .  A
N2382      H2414   1.044       .  S
N2383      C2390   1.352       .  A
N2383      C2391   1.350       .  A
N2384      C2389   1.355       .  A
N2384      C2388   1.360       .  A
N2384      H2415   1.036       .  S
N2385      C2392   1.356       .  A
N2385      C2393   1.350       .  A
C2386      C2394   1.387       .  A
C2386      C2402   1.411       .  A
C2387      C2403   1.409       .  A
C2387      C2395   1.386       .  A
C2388      C2396   1.388       .  A
C2388      C2405   1.428       .  A
C2389      C2404   1.422       .  A
C2389      C2397   1.386       .  A
C2390      C2402   1.415       .  A
C2390      C2398   1.384       .  A
C2391      C2405   1.425       .  A
C2391      C2399   1.390       .  A
C2392      C2400   1.387       .  A
C2392      C2403   1.419       .  A
C2393      C2401   1.385       .  A
C2393      C2404   1.414       .  A
C2394      C2395   1.374       .  A
C2394      H2406   1.082       .  S
C2395      H2407   1.082       .  S
C2396      C2397   1.378       .  A
C2396      H2408   1.082       .  S
C2397      H2409   1.082       .  S
C2398      C2399   1.376       .  A
C2398      H2410   1.082       .  S
C2399      H2411   1.081       .  S
C2400      C2401   1.370       .  A
C2400      H2412   1.081       .  S
C2401      H2413   1.082       .  S
C2402      C2617   1.501       .  S
C2403      C2624   1.531       .  S
C2404      C2527   1.490       .  S
C2405      C2517   1.509       .  S
O2416      C2424   1.256       .  A
O2416     Co2436   1.964       .  S
O2417      C2425   1.258       .  A
O2417     Co2437   2.035       .  S
O2418      C2426   1.240       .  A
O2419      C2427   1.272       .  A
O2419     Co2439   2.021       .  S
O2420      C2426   1.264       .  A
O2420     Co2437   2.033       .  S
O2421      C2427   1.252       .  A
O2421     Co2436   1.945       .  S
O2422      C2425   1.242       .  A
O2423      C2424   1.274       .  A
O2423     Co2438   2.033       .  S
C2424      C2687   1.474       .  S
C2425      C2514   1.515       .  S
C2426      C2677   1.487       .  S
C2427      C2537   1.469       .  S
O2428      C2441   1.264       .  A
O2428     Co2436   2.017       .  S
O2429      C2442   1.296       .  A
O2429     Co2437   2.089       .  S
O2430      C2443   1.264       .  A
O2430     Co2438   1.995       .  S
O2431      C2444   1.268       .  A
O2432      C2444   1.300       .  A
O2432     Co2437   2.087       .  S
O2433      C2443   1.264       .  A
O2433     Co2436   2.001       .  S
O2434      C2441   1.257       .  A
O2434     Co2439   1.986       .  S
O2435      C2442   1.268       .  A
Co2436     O2440   2.096       .  S
Co2438     O2440   1.940       .  S
Co2439     O2440   1.916       .  S
C2442      C2694   1.496       .  S
C2443      C2707   1.491       .  S
N2445      C2450   1.352       .  A
N2445      C2449   1.357       .  A
N2445      H2477   1.040       .  S
N2446      C2453   1.356       .  A
N2446      C2454   1.351       .  A
N2447      C2452   1.362       .  A
N2447      C2451   1.353       .  A
N2447      H2478   1.043       .  S
N2448      C2455   1.348       .  A
N2448      C2456   1.354       .  A
C2449      C2457   1.388       .  A
C2449      C2465   1.427       .  A
C2450      C2466   1.423       .  A
C2450      C2458   1.387       .  A
C2451      C2459   1.389       .  A
C2451      C2468   1.426       .  A
C2452      C2467   1.429       .  A
C2452      C2460   1.386       .  A
C2453      C2465   1.422       .  A
C2453      C2461   1.386       .  A
C2454      C2468   1.417       .  A
C2454      C2462   1.388       .  A
C2455      C2463   1.388       .  A
C2455      C2466   1.417       .  A
C2456      C2464   1.384       .  A
C2456      C2467   1.414       .  A
C2457      C2458   1.375       .  A
C2457      H2469   1.079       .  S
C2458      H2470   1.082       .  S
C2459      C2460   1.371       .  A
C2459      H2471   1.080       .  S
C2460      H2472   1.081       .  S
C2461      C2462   1.368       .  A
C2461      H2473   1.082       .  S
C2462      H2474   1.082       .  S
C2463      C2464   1.376       .  A
C2463      H2475   1.082       .  S
C2464      H2476   1.082       .  S
C2465      C2567   1.513       .  S
C2466      C2554   1.492       .  S
C2467      C2664   1.524       .  S
C2468      C2657   1.492       .  S
N2479      C2484   1.360       .  A
N2479      C2483   1.350       .  A
N2479      H2511   1.037       .  S
N2480      C2487   1.350       .  A
N2480      C2488   1.355       .  A
N2481      C2486   1.352       .  A
N2481      C2485   1.360       .  A
N2481      H2512   1.034       .  S
N2482      C2489   1.352       .  A
N2482      C2490   1.347       .  A
C2483      C2491   1.387       .  A
C2483      C2499   1.418       .  A
C2484      C2500   1.426       .  A
C2484      C2492   1.386       .  A
C2485      C2493   1.385       .  A
C2485      C2502   1.426       .  A
C2486      C2501   1.428       .  A
C2486      C2494   1.390       .  A
C2487      C2499   1.417       .  A
C2487      C2495   1.388       .  A
C2488      C2502   1.421       .  A
C2488      C2496   1.386       .  A
C2489      C2497   1.384       .  A
C2489      C2500   1.412       .  A
C2490      C2498   1.388       .  A
C2490      C2501   1.413       .  A
C2491      C2492   1.376       .  A
C2491      H2503   1.083       .  S
C2492      H2504   1.081       .  S
C2493      C2494   1.377       .  A
C2493      H2505   1.081       .  S
C2494      H2506   1.082       .  S
C2495      C2496   1.365       .  A
C2495      H2507   1.082       .  S
C2496      H2508   1.082       .  S
C2497      C2498   1.372       .  A
C2497      H2509   1.082       .  S
C2498      H2510   1.082       .  S
C2499      C2647   1.481       .  S
C2500      C2634   1.513       .  S
C2501      C2587   1.485       .  S
C2502      C2577   1.514       .  S
C2513      C2514   1.426       .  A
C2513      C2518   1.409       .  A
C2513     Br2520   1.931       .  S
C2514      C2515   1.422       .  A
C2515      C2516   1.421       .  A
C2515     Br2522   1.928       .  S
C2516      C2517   1.412       .  A
C2516     Br2521   1.930       .  S
C2517      C2518   1.404       .  A
C2518     Br2519   1.930       .  S
C2523      C2524   1.420       .  A
C2523      C2528   1.406       .  A
C2523     Br2530   1.935       .  S
C2524      C2525   1.419       .  A
C2525      C2526   1.410       .  A
C2526      C2527   1.406       .  A
C2526     Br2531   1.929       .  S
C2527      C2528   1.408       .  A
C2528     Br2529   1.936       .  S
C2533      C2534   1.413       .  A
C2533      C2538   1.401       .  A
C2533     Br2540   1.933       .  S
C2534      C2535   1.413       .  A
C2535      C2536   1.404       .  A
C2535     Br2542   1.925       .  S
C2536      C2537   1.404       .  A
C2536     Br2541   1.923       .  S
C2537      C2538   1.413       .  A
C2538     Br2539   1.935       .  S
C2543      C2544   1.420       .  A
C2543      C2548   1.409       .  A
C2543     Br2550   1.936       .  S
C2544      C2545   1.424       .  A
C2545      C2546   1.413       .  A
C2546      C2547   1.406       .  A
C2546     Br2551   1.933       .  S
C2547      C2548   1.409       .  A
C2548     Br2549   1.929       .  S
C2553      C2554   1.409       .  A
C2553      C2558   1.403       .  A
C2553     Br2560   1.934       .  S
C2554      C2555   1.413       .  A
C2555      C2556   1.408       .  A
C2555     Br2562   1.929       .  S
C2556      C2557   1.408       .  A
C2556     Br2561   1.929       .  S
C2557      C2558   1.413       .  A
C2558     Br2559   1.921       .  S
C2563      C2564   1.410       .  A
C2563      C2568   1.420       .  A
C2563     Br2570   1.921       .  S
C2564      C2565   1.411       .  A
C2565      C2566   1.404       .  A
C2566      C2567   1.416       .  A
C2566     Br2571   1.937       .  S
C2567      C2568   1.418       .  A
C2568     Br2569   1.928       .  S
C2573      C2574   1.419       .  A
C2573      C2578   1.411       .  A
C2573     Br2580   1.921       .  S
C2574      C2575   1.423       .  A
C2575      C2576   1.420       .  A
C2575     Br2582   1.915       .  S
C2576      C2577   1.412       .  A
C2576     Br2581   1.932       .  S
C2577      C2578   1.412       .  A
C2578     Br2579   1.934       .  S
C2583      C2584   1.411       .  A
C2583      C2588   1.413       .  A
C2583     Br2590   1.928   1_655  S
C2584      C2585   1.423       .  A
C2585      C2586   1.397       .  A
C2585     Br2592   1.915       .  S
C2586      C2587   1.398       .  A
C2586     Br2591   1.943       .  S
C2587      C2588   1.412       .  A
C2588     Br2589   1.928       .  S
C2593      C2594   1.403       .  A
C2593      C2598   1.399       .  A
C2593     Br2600   1.925       .  S
C2594      C2595   1.411       .  A
C2595      C2596   1.420       .  A
C2595     Br2602   1.923       .  S
C2596      C2597   1.414       .  A
C2596     Br2601   1.924       .  S
C2597      C2598   1.410       .  A
C2598     Br2599   1.920       .  S
C2603      C2604   1.405       .  A
C2603      C2608   1.410       .  A
C2603     Br2610   1.938       .  S
C2604      C2605   1.404       .  A
C2605      C2606   1.413       .  A
C2605     Br2612   1.932       .  S
C2606      C2607   1.427       .  A
C2606     Br2611   1.935       .  S
C2607      C2608   1.429       .  A
C2608     Br2609   1.939       .  S
C2613      C2614   1.404       .  A
C2613      C2618   1.411       .  A
C2613     Br2620   1.927   1_556  S
C2614      C2615   1.410       .  A
C2615      C2616   1.403       .  A
C2615     Br2622   1.918       .  S
C2616      C2617   1.411       .  A
C2616     Br2621   1.932       .  S
C2617      C2618   1.418       .  A
C2618     Br2619   1.924       .  S
C2623      C2624   1.412       .  A
C2623      C2628   1.409       .  A
C2623     Br2630   1.934       .  S
C2624      C2625   1.416       .  A
C2625      C2626   1.407       .  A
C2625     Br2632   1.925       .  S
C2626      C2627   1.414       .  A
C2626     Br2631   1.934   1_556  S
C2627      C2628   1.421       .  A
C2633      C2634   1.408       .  A
C2633      C2638   1.417       .  A
C2633     Br2640   1.934       .  S
C2634      C2635   1.414       .  A
C2635      C2636   1.413       .  A
C2635     Br2642   1.939       .  S
C2636      C2637   1.424       .  A
C2637      C2638   1.432       .  A
C2638     Br2639   1.932       .  S
C2643      C2644   1.419       .  A
C2643      C2648   1.407       .  A
C2643     Br2650   1.930       .  S
C2644      C2645   1.410       .  A
C2645      C2646   1.399       .  A
C2646      C2647   1.403       .  A
C2646     Br2651   1.931   1_565  S
C2647      C2648   1.407       .  A
C2648     Br2649   1.932       .  S
C2653      C2654   1.404       .  A
C2653      C2658   1.391       .  A
C2653     Br2660   1.908       .  S
C2654      C2655   1.408       .  A
C2655      C2656   1.415       .  A
C2656      C2657   1.415       .  A
C2656     Br2661   1.925       .  S
C2657      C2658   1.399       .  A
C2658     Br2659   1.919       .  S
C2663      C2664   1.423       .  A
C2663      C2668   1.416       .  A
C2664      C2665   1.415       .  A
C2665      C2666   1.415       .  A
C2665     Br2672   1.933       .  S
C2666      C2667   1.413       .  A
C2666     Br2671   1.910       .  S
C2667      C2668   1.409       .  A
C2673      C2674   1.411       .  A
C2673      C2678   1.393       .  A
C2673     Br2680   1.936       .  S
C2674      C2675   1.420       .  A
C2675      C2676   1.418       .  A
C2675     Br2682   1.927       .  S
C2676      C2677   1.407       .  A
C2676     Br2681   1.920       .  S
C2677      C2678   1.408       .  A
C2678     Br2679   1.921       .  S
C2683      C2684   1.413       .  A
C2683      C2688   1.412       .  A
C2683     Br2690   1.928       .  S
C2684      C2685   1.404       .  A
C2685      C2686   1.398       .  A
C2685     Br2692   1.928       .  S
C2686      C2687   1.409       .  A
C2686     Br2691   1.919       .  S
C2687      C2688   1.410       .  A
C2688     Br2689   1.928       .  S
C2693      C2694   1.408       .  A
C2693      C2698   1.407       .  A
C2693     Br2700   1.923       .  S
C2695      C2696   1.422       .  A
C2695     Br2702   1.926       .  S
C2696      C2697   1.419       .  A
C2696     Br2701   1.928       .  S
C2698     Br2699   1.928       .  S
C2703      C2704   1.419       .  A
C2703      C2708   1.419       .  A
C2703     Br2710   1.927       .  S
C2704      C2705   1.413       .  A
C2705     Br2712   1.939       .  S
C2706      C2707   1.409       .  A
C2706     Br2711   1.908       .  S
C2708     Br2709   1.921       .  S
C2713      C2714   1.406       .  A
C2713      C2718   1.412       .  A
C2713     Br2720   1.928       .  S
C2714      C2715   1.404       .  A
C2715      C2716   1.401       .  A
C2715     Br2722   1.917       .  S
C2716      C2717   1.412       .  A
C2716     Br2721   1.933       .  S
C2717      C2718   1.418       .  A
C2718     Br2719   1.926       .  S
C2723      C2724   1.415       .  A
C2723      C2728   1.403       .  A
C2723     Br2730   1.934       .  S
C2724      C2725   1.419       .  A
C2725      C2726   1.419       .  A
C2725     Br2732   1.929       .  S
C2726      C2727   1.407       .  A
C2726     Br2731   1.911       .  S
C2727      C2728   1.411       .  A
C2728     Br2729   1.925       .  S
C2733      C2734   1.416       .  A
C2733      C2738   1.396       .  A
C2733     Br2740   1.937       .  S
C2734      C2735   1.415       .  A
C2735      C2736   1.407       .  A
C2735     Br2742   1.930       .  S
C2736      C2737   1.411       .  A
C2736     Br2741   1.916       .  S
C2737      C2738   1.408       .  A
C2738     Br2739   1.920       .  S
C2743      C2744   1.407       .  A
C2743      C2748   1.398       .  A
C2743     Br2750   1.917       .  S
C2744      C2745   1.408       .  A
C2745      C2746   1.410       .  A
C2745     Br2752   1.927       .  S
C2746      C2747   1.413       .  A
C2746     Br2751   1.928       .  S
C2747      C2748   1.409       .  A
C2748     Br2749   1.938       .  S
C2753      C2754   1.415       .  A
C2753      C2758   1.418       .  A
C2753     Br2760   1.925       .  S
C2754      C2755   1.421       .  A
C2755      C2756   1.393       .  A
C2755     Br2762   1.943       .  S
C2756      C2757   1.404       .  A
C2756     Br2761   1.933       .  S
C2757      C2758   1.413       .  A
C2758     Br2759   1.927       .  S
C2763      C2764   1.420       .  A
C2763      C2768   1.415       .  A
C2763     Br2770   1.930       .  S
C2764      C2765   1.418       .  A
C2765      C2766   1.420       .  A
C2765     Br2772   1.924       .  S
C2766      C2767   1.417       .  A
C2766     Br2771   1.932       .  S
C2767      C2768   1.415       .  A
C2768     Br2769   1.924       .  S
C2773      C2774   1.409       .  A
C2773      C2778   1.406       .  A
C2773     Br2780   1.935       .  S
C2774      C2775   1.421       .  A
C2775      C2776   1.428       .  A
C2775     Br2782   1.923       .  S
C2776      C2777   1.410       .  A
C2776     Br2781   1.920       .  S
C2777      C2778   1.412       .  A
C2778     Br2779   1.906       .  S
C2783      C2784   1.410       .  A
C2783      C2788   1.390       .  A
C2783     Br2790   1.931       .  S
C2784      C2785   1.412       .  A
C2785      C2786   1.409       .  A
C2785     Br2792   1.929       .  S
C2786      C2787   1.409       .  A
C2786     Br2791   1.927       .  S
C2787      C2788   1.400       .  A
C2788     Br2789   1.922       .  S
C2793      C2794   1.407       .  A
C2793      C2798   1.407       .  A
C2793     Br2800   1.934   1_655  S
C2794      C2795   1.413       .  A
C2795      C2796   1.418       .  A
C2795     Br2802   1.927       .  S
C2796      C2797   1.412       .  A
C2796     Br2801   1.924       .  S
C2797      C2798   1.415       .  A
C2803      C2804   1.419       .  A
C2803      C2808   1.399   1_455  A
C2803     Br2810   1.929       .  S
C2804      C2805   1.422       .  A
C2805      C2806   1.403       .  A
C2805     Br2812   1.929       .  S
C2806      C2807   1.406       .  A
C2806     Br2811   1.934       .  S
C2807      C2808   1.405   1_455  A
C2808     Br2809   1.935       .  S
C2813      C2814   1.406       .  A
C2813      C2818   1.406       .  A
C2813     Br2820   1.928       .  S
C2814      C2815   1.413       .  A
C2815      C2816   1.398       .  A
C2815     Br2822   1.924       .  S
C2816      C2817   1.406       .  A
C2816     Br2821   1.937       .  S
C2817      C2818   1.412       .  A
C2818     Br2819   1.930       .  S
C2823      C2824   1.412       .  A
C2823      C2828   1.408       .  A
C2823     Br2830   1.935       .  S
C2824      C2825   1.417       .  A
C2825      C2826   1.419       .  A
C2825     Br2832   1.930       .  S
C2826      C2827   1.411       .  A
C2826     Br2831   1.909       .  S
C2827      C2828   1.417       .  A
C2828     Br2829   1.914       .  S
