geometry optimzed in LAMMPS
_audit_creation_date              2020-11-30 
_audit_creation_method            'lammps2cif' 
_symmetry_space_group_name_H-M    'P1' 
_symmetry_Int_Tables_number       1 
_symmetry_cell_setting            triclinic 
loop_ 
_symmetry_equiv_pos_as_xyz 
  x,y,z 
_cell_length_a                    51.59333243364101 
_cell_length_b                    51.592676955158076 
_cell_length_c                    26.39742871978364 
_cell_angle_alpha                 90.20889969945127 
_cell_angle_beta                  89.98795078750109 
_cell_angle_gamma                 119.36691860408466 
loop_ 
_atom_site_label 
_atom_site_type_symbol 
_atom_site_fract_x 
_atom_site_fract_y 
_atom_site_fract_z 
_atom_site_charge 
Zn1        Zn  0.28054225  0.28267930  0.03405323     1.49720
Zn2        Zn  0.26919162  0.23460776  0.94828769     1.49360
Zn3        Zn  0.21918875  0.21845032  0.03383840     1.49110
Zn4        Zn  0.23125257  0.26638072  0.94775753     1.49480
O5          O  0.25000902  0.25049083  0.99170509    -1.83350
O6          O  0.32131430  0.28643848  0.02442612    -0.73980
O7          O  0.25323450  0.19173505  0.96312827    -0.73800
O8          O  0.22942002  0.22894511  0.10753837    -0.73310
O9          O  0.31291341  0.25426187  0.96235825    -0.73990
O10         O  0.27023874  0.27346040  0.10804224    -0.73590
O11         O  0.21765855  0.17875478  0.02086304    -0.74180
O12         O  0.18845043  0.24822690  0.96452210    -0.73570
O13         O  0.26364683  0.23899096  0.87385941    -0.74320
O14         O  0.17828616  0.21456997  0.02466513    -0.73710
O15         O  0.23618268  0.26112163  0.87331961    -0.74180
O16         O  0.24842858  0.30988718  0.95963269    -0.74090
O17         O  0.28360226  0.32274508  0.01767599    -0.73880
C18         C  0.33055356  0.27365817  0.99381562     0.77910
C19         C  0.23377596  0.17246344  0.99231725     0.78400
C20         C  0.24961961  0.25131044  0.13124179     0.77360
C21         C  0.17052097  0.22941310  0.99609580     0.77740
C22         C  0.24999656  0.25000360  0.84987225     0.78870
C23         C  0.26888928  0.32965120  0.98692790     0.77920
Zn24       Zn  0.23132645  0.26521882  0.44583974     1.49720
Zn25       Zn  0.26473612  0.22889065  0.44916907     1.49360
Zn26       Zn  0.28063537  0.28162965  0.53132651     1.49110
Zn27       Zn  0.21725808  0.21902210  0.53523790     1.49480
O28         O  0.24870689  0.24872385  0.49126208    -1.83350
O29         O  0.23731315  0.25989208  0.37246383    -0.73980
O30         O  0.30775377  0.24610286  0.46462549    -0.73800
O31         O  0.28440060  0.32213663  0.51395186    -0.73310
O32         O  0.26101121  0.23390126  0.37412919    -0.73990
O33         O  0.24808745  0.30863296  0.45815225    -0.73590
O34         O  0.32071175  0.28323677  0.51970963    -0.74180
O35         O  0.22837040  0.23069425  0.60806499    -0.73570
O36         O  0.24589415  0.18521883  0.46538526    -0.74320
O37         O  0.27074191  0.27393097  0.60655377    -0.73710
O38         O  0.21375124  0.17831323  0.52710804    -0.74180
O39         O  0.17685291  0.21629040  0.52271899    -0.74090
O40         O  0.18817594  0.24697520  0.45764955    -0.73880
C41         C  0.24972152  0.24714915  0.34971331     0.77910
C42         C  0.32715713  0.26676723  0.49225767     0.78400
C43         C  0.26890596  0.32871323  0.48437949     0.77360
C44         C  0.24959126  0.25269332  0.63075139     0.77740
C45         C  0.22680975  0.16863720  0.49795488     0.78870
C46         C  0.16950337  0.22950470  0.48969821     0.77920
Zn47       Zn  0.99930582  0.28253842  0.04319526     1.49720
Zn48       Zn  0.46477001  0.23345157  0.95715981     1.49360
Zn49       Zn  0.03375146  0.26657859  0.95930721     1.49110
Zn50       Zn  0.99844879  0.21805938  0.04413336     1.49480
O51         O  0.99892449  0.25007951  0.00201160    -1.83350
O52         O  0.46297320  0.28733634  0.02841643    -0.73980
O53         O  0.47559654  0.23712740  0.88332613    -0.73800
O54         O  0.06060011  0.30910730  0.97554854    -0.73310
O55         O  0.44072665  0.25359256  0.96779360    -0.73990
O56         O  0.03744687  0.32229682  0.03240959    -0.73590
O57         O  0.02471205  0.26333805  0.88539268    -0.74180
O58         O  0.03600142  0.21395186  0.03314257    -0.73570
O59         O  0.43776034  0.19090428  0.97304522    -0.74320
O60         O  0.05828224  0.24739461  0.97281019    -0.73710
O61         O  0.46008789  0.17832715  0.03241772    -0.74180
O62         O  0.99898295  0.22952938  0.11785301    -0.74090
O63         O  0.99892654  0.27268314  0.11738676    -0.73880
C64         C  0.44187985  0.27395993  0.99651907     0.77910
C65         C  0.00051714  0.25047600  0.86070280     0.78400
C66         C  0.06008748  0.32832085  0.00510857     0.77360
C67         C  0.05792032  0.22822514  0.00336441     0.77740
C68         C  0.43788576  0.17198900  0.00353789     0.78870
C69         C  0.99946741  0.25147804  0.14120044     0.77920
Zn70       Zn  0.00070529  0.28224814  0.46146527     1.49720
Zn71       Zn  0.46665394  0.23227958  0.54498143     1.49360
Zn72       Zn  0.99771701  0.21700009  0.45526493     1.49110
Zn73       Zn  0.03428133  0.26299195  0.54376431     1.49480
O74         O  0.00003328  0.24889932  0.50008768    -1.83350
O75         O  0.46204754  0.28407871  0.47317216    -0.73980
O76         O  0.44300260  0.18920075  0.53442529    -0.73800
O77         O  0.99720952  0.22875630  0.38284023    -0.73310
O78         O  0.43962993  0.24793597  0.52952917    -0.73990
O79         O  0.00113806  0.27372014  0.38611862    -0.73590
O80         O  0.46035678  0.17711680  0.46707189    -0.74180
O81         O  0.05744271  0.24266884  0.52791882    -0.73570
O82         O  0.47636847  0.23839320  0.61815826    -0.74320
O83         O  0.03401055  0.21179230  0.46378360    -0.73710
O84         O  0.02533057  0.25916011  0.61856587    -0.74180
O85         O  0.06087425  0.30560478  0.53015364    -0.74090
O86         O  0.03850902  0.32215371  0.47842033    -0.73880
C87         C  0.43947153  0.26732258  0.50030748     0.77910
C88         C  0.44112939  0.17007613  0.50212883     0.78400
C89         C  0.99887408  0.25150910  0.36094013     0.77360
C90         C  0.05567801  0.22394829  0.49479512     0.77740
C91         C  0.00074679  0.24882025  0.64200876     0.78870
C92         C  0.06078070  0.32678559  0.50604061     0.77920
Zn93       Zn  0.26512099  0.03309557  0.05294927     1.49720
Zn94       Zn  0.21689353  0.99875980  0.96606966     1.49360
Zn95       Zn  0.28195890  0.00226011  0.96380302     1.49110
Zn96       Zn  0.23435828  0.46426578  0.04892816     1.49480
O97         O  0.24951473  0.99950970  0.00710530    -1.83350
O98         O  0.24847656  0.05929101  0.03604531    -0.73980
O99         O  0.22576039  0.99732438  0.89167018    -0.73800
O100        O  0.32143584  0.04002117  0.97823514    -0.73310
O101        O  0.21409259  0.03655832  0.97642386    -0.73990
O102        O  0.30868522  0.05892406  0.04315636    -0.73590
O103        O  0.27120283  0.00245602  0.89035552    -0.74180
O104        O  0.25365698  0.43987667  0.03137939    -0.73570
O105        O  0.17696882  0.46179126  0.98041392    -0.74320
O106        O  0.28662170  0.46563142  0.97143322    -0.73710
O107        O  0.19118834  0.43856169  0.03490934    -0.74180
O108        O  0.23884345  0.47309756  0.12377037    -0.74090
O109        O  0.25718508  0.02189855  0.12635699    -0.73880
C110        C  0.22933849  0.05881817  0.00527347     0.77910
C111        C  0.24803931  0.99926302  0.86756641     0.78400
C112        C  0.32793787  0.06022793  0.01166310     0.77360
C113        C  0.27331253  0.44273358  0.99940723     0.77740
C114        C  0.17112738  0.43937362  0.00800627     0.78870
C115        C  0.24747557  0.99706617  0.14871004     0.77920
Zn116      Zn  0.21785487  0.99957327  0.46766085     1.49720
Zn117      Zn  0.26761284  0.03310668  0.55168678     1.49360
Zn118      Zn  0.23602827  0.46433514  0.54895559     1.49110
Zn119      Zn  0.28242430  0.00155919  0.46179514     1.49480
O120        O  0.25075115  0.99941048  0.50662895    -1.83350
O121        O  0.21378100  0.03645040  0.48400936    -0.73980
O122        O  0.26240576  0.02256802  0.62509431    -0.73800
O123        O  0.19294274  0.43812226  0.53391508    -0.73310
O124        O  0.25029901  0.05942022  0.53931823    -0.73990
O125        O  0.17835057  0.46146451  0.48048283    -0.73590
O126        O  0.24081527  0.47346453  0.62434216    -0.74180
O127        O  0.28803370  0.46550769  0.47013396    -0.73570
O128        O  0.31041370  0.05803343  0.53865973    -0.74320
O129        O  0.25578854  0.44032214  0.53131738    -0.73710
O130        O  0.32186307  0.03987059  0.47153203    -0.74180
O131        O  0.27001446  0.00081713  0.38961288    -0.74090
O132        O  0.22668620  0.00048147  0.39245030    -0.73880
C133        C  0.22931216  0.05860280  0.51308189     0.77910
C134        C  0.25184447  0.99801562  0.64849225     0.78400
C135        C  0.17269680  0.43871390  0.50713879     0.77360
C136        C  0.27516211  0.44292441  0.49891165     0.77740
C137        C  0.32885825  0.06010139  0.50498474     0.78870
C138        C  0.24799315  0.00067569  0.36757184     0.77920
C139        C  0.27057943  0.02265116  0.78613030    -0.11490
C140        C  0.24762733  0.99854361  0.81164583     0.05520
C141        C  0.22672432  0.47357467  0.78348094    -0.06780
C142        C  0.22926022  0.47372336  0.73045013    -0.07520
C143        C  0.25189287  0.99813009  0.70473796    -0.01890
C144        C  0.27316598  0.02274251  0.73323309     0.04750
N145        N  0.29823260  0.04733616  0.70961650     0.67250
H146        H  0.28711880  0.04135644  0.80781255     0.16150
H147        H  0.21292101  0.45478887  0.70898902     0.15860
N148        N  0.20371609  0.44742561  0.80763235     0.74960
O149        O  0.30744970  0.07346187  0.72587341    -0.38490
O150        O  0.31387837  0.04263261  0.67806661    -0.38440
O151        O  0.18768852  0.44960342  0.84161623    -0.39140
O152        O  0.19649349  0.42200967  0.78986949    -0.39210
C153        C  0.25602308  0.48161509  0.28648791    -0.11490
C154        C  0.24719664  0.00004592  0.31160439     0.05520
C155        C  0.23775108  0.01699927  0.28282832    -0.06780
C156        C  0.23734116  0.01488566  0.22972000    -0.07520
C157        C  0.24609612  0.99635760  0.20466873    -0.02070
C158        C  0.25521196  0.47925736  0.23358989     0.04750
N159        N  0.26490105  0.46037879  0.21012439     0.67250
H160        H  0.26318702  0.46847639  0.30827274     0.16150
H161        H  0.23072320  0.02834488  0.20761944     0.15860
N162        N  0.22999879  0.03747484  0.30634916     0.74960
O163        O  0.29000093  0.46339307  0.22148325    -0.38490
O164        O  0.24629546  0.43708078  0.18729501    -0.38440
O165        O  0.24536718  0.05384508  0.34257644    -0.39140
O166        O  0.21044679  0.04221840  0.28653083    -0.39210
C167        C  0.13806756  0.38893501  0.54146356    -0.11490
C168        C  0.14253961  0.41164916  0.50751200     0.05520
C169        C  0.11858893  0.40713495  0.47540621    -0.06780
C170        C  0.09155956  0.37995396  0.47723713    -0.07520
C171        C  0.08781306  0.35684949  0.50990120    -0.02070
C172        C  0.11143513  0.36211149  0.54339788     0.04750
N173        N  0.10913307  0.34054538  0.57988942     0.67250
H174        H  0.15555242  0.39182070  0.56744086     0.16150
H175        H  0.07385763  0.37647496  0.45130303     0.15860
N176        N  0.12136852  0.42915734  0.43959330     0.74960
O177        O  0.12872154  0.33263116  0.58137437    -0.38490
O178        O  0.09060864  0.33328112  0.61560641    -0.38440
O179        O  0.13977176  0.43624416  0.40372601    -0.39140
O180        O  0.10158184  0.43678113  0.43762173    -0.39210
C181        C  0.38958466  0.13900077  0.52934013    -0.11490
C182        C  0.41419657  0.14027862  0.50443443     0.05520
C183        C  0.41096639  0.11435191  0.47991201    -0.06780
C184        C  0.38285691  0.08829030  0.47994707    -0.07520
C185        C  0.35823622  0.08758356  0.50431980    -0.02070
C186        C  0.36189281  0.11365466  0.52860197     0.04750
N187        N  0.33736156  0.11572828  0.54981950     0.67250
H188        H  0.39117149  0.15861708  0.54741855     0.16150
H189        H  0.38035797  0.06833236  0.46176404     0.15860
N190        N  0.43578278  0.11365292  0.45653246     0.74960
O191        O  0.33939233  0.12603736  0.59398296    -0.38490
O192        O  0.31630322  0.11260556  0.52146901    -0.38440
O193        O  0.46068561  0.12524283  0.47866832    -0.39140
O194        O  0.43179867  0.09769938  0.41777866    -0.39210
C195        C  0.47860061  0.22630100  0.77856744    -0.11490
C196        C  0.00125460  0.25053962  0.80474768     0.05520
C197        C  0.02374956  0.27430360  0.77687062    -0.06780
C198        C  0.02312665  0.27323904  0.72386266    -0.07520
C199        C  0.00041441  0.24901717  0.69783262    -0.02070
C200        C  0.47790399  0.22532500  0.72564192     0.04750
N201        N  0.45491574  0.19951846  0.70093696     0.67250
H202        H  0.46133652  0.20779671  0.79934106     0.16150
H203        H  0.04035635  0.29166652  0.70288729     0.15860
N204        N  0.04660393  0.30023999  0.80146906     0.74960
O205        O  0.45353933  0.17464096  0.70729852    -0.38490
O206        O  0.43284995  0.20039378  0.68223011    -0.38440
O207        O  0.06866370  0.29951991  0.82056410    -0.39140
O208        O  0.04795177  0.32506065  0.79449099    -0.39210
C209        C  0.48642654  0.26573094  0.22365392    -0.11490
C210        C  0.00060263  0.25240410  0.19743306     0.05520
C211        C  0.01464819  0.23938659  0.22546321    -0.06780
C212        C  0.01300930  0.23892661  0.27852816    -0.07520
C213        C  0.99859204  0.25196086  0.30476147    -0.02070
C214        C  0.48492519  0.26541197  0.27685623     0.04750
N215        N  0.46811464  0.27733259  0.30137206     0.67250
H216        H  0.47528881  0.27538681  0.20246151     0.16150
H217        H  0.02412089  0.22922281  0.29968169     0.15860
N218        N  0.03188639  0.22790647  0.20111505     0.74960
O219        O  0.46778730  0.29974560  0.28305874    -0.38490
O220        O  0.45014696  0.26302519  0.33643517    -0.38440
O221        O  0.05045145  0.24287962  0.16720052    -0.39140
O222        O  0.03203765  0.20527252  0.21878923    -0.39210
C223        C  0.14151785  0.38511619  0.01209506    -0.11490
C224        C  0.14148633  0.41212812  0.00686736     0.05520
C225        C  0.11382920  0.41168062  0.00348452    -0.06780
C226        C  0.08715918  0.38415291  0.00536807    -0.07520
C227        C  0.08765618  0.35726096  0.00963051    -0.02070
C228        C  0.11525413  0.35794627  0.01436689     0.04750
N229        N  0.11716106  0.33140322  0.02302639     0.67250
H230        H  0.16246804  0.38512572  0.01532077     0.16150
H231        H  0.06601380  0.38368536  0.00175458     0.15860
N232        N  0.11216409  0.43853991  0.99944020     0.74960
O233        O  0.13952331  0.32990236  0.00748464    -0.38490
O234        O  0.09923788  0.31162547  0.05281441    -0.38440
O235        O  0.12387062  0.45557247  0.96214088    -0.39140
O236        O  0.09408551  0.44207014  0.02689316    -0.39210
C237        C  0.41125708  0.11615013  0.00200460    -0.11490
C238        C  0.41048002  0.14288410  0.00710877     0.05520
C239        C  0.38298286  0.14182850  0.01533455    -0.06780
C240        C  0.35703794  0.11447443  0.01831997    -0.07520
C241        C  0.35732448  0.08761405  0.01185633    -0.02070
C242        C  0.38486100  0.08830945  0.00389322     0.04750
N243        N  0.38664550  0.06141556  0.99918868     0.67250
H244        H  0.43246421  0.11702590  0.99626560     0.16150
H245        H  0.33615658  0.11434273  0.02409414     0.15860
N246        N  0.38098953  0.16839593  0.02166938     0.74960
O247        O  0.40768009  0.06145290  0.97466434    -0.38490
O248        O  0.36932364  0.03851075  0.02400598    -0.38440
O249        O  0.38193992  0.18333201  0.98325533    -0.39140
O250        O  0.37165083  0.17299855  0.06306390    -0.39210
C251        C  0.25813523  0.39538597  0.45763757    -0.11490
C252        C  0.27906922  0.41691203  0.48991227     0.05520
C253        C  0.29975887  0.41114855  0.51574749    -0.06780
C254        C  0.29664560  0.38238623  0.51162281    -0.07520
C255        C  0.27420465  0.35992433  0.48150327    -0.02070
C256        C  0.25575524  0.36739970  0.45205687     0.04750
N257        N  0.23407873  0.34706106  0.41679208     0.67250
H258        H  0.24291339  0.40031090  0.43691051     0.16150
H259        H  0.31144717  0.37724398  0.53299354     0.15860
N260        N  0.32359583  0.43360890  0.54606821     0.74960
O261        O  0.20882127  0.34529852  0.41450555    -0.38490
O262        O  0.24235956  0.33694427  0.38038484    -0.38440
O263        O  0.32820550  0.45999135  0.54775033    -0.39140
O264        O  0.34178603  0.42774456  0.56824732    -0.39210
C265        C  0.23913413  0.13513598  0.54339701    -0.11490
C266        C  0.22219463  0.13838571  0.50525815     0.05520
C267        C  0.20398598  0.11382999  0.47361253    -0.06780
C268        C  0.20564389  0.08739807  0.47873433    -0.07520
C269        C  0.22421031  0.08473541  0.51506624    -0.02070
C270        C  0.23992104  0.10863311  0.54959824     0.04750
N271        N  0.25684841  0.10665741  0.59115876     0.67250
H272        H  0.25230638  0.15373815  0.56846902     0.16150
H273        H  0.19302950  0.06902138  0.45306263     0.15860
N274        N  0.18392429  0.11504218  0.43659078     0.74960
O275        O  0.28182251  0.12861563  0.60219593    -0.38490
O276        O  0.24461218  0.08551831  0.62228272    -0.38440
O277        O  0.18178809  0.13820058  0.43084885    -0.39140
O278        O  0.16657843  0.09206883  0.41160056    -0.39210
C279        C  0.10661668  0.24604161  0.46850906    -0.11490
C280        C  0.08216076  0.22078398  0.48783247     0.05520
C281        C  0.08568700  0.19705846  0.50697610    -0.06780
C282        C  0.11453018  0.20017533  0.50712615    -0.07520
C283        C  0.13928998  0.22621354  0.48909974    -0.02070
C284        C  0.13498572  0.24941143  0.46995929     0.04750
N285        N  0.15934763  0.27758254  0.45525381     0.67250
H286        H  0.10394966  0.26449287  0.45523726     0.16150
H287        H  0.11777549  0.18231640  0.52139674     0.15860
N288        N  0.06093717  0.17036156  0.52696036     0.74960
O289        O  0.15773542  0.28951418  0.41459362    -0.38490
O290        O  0.17954958  0.29285089  0.48689602    -0.38440
O291        O  0.03445325  0.16397163  0.51770454    -0.39140
O292        O  0.06543568  0.15198986  0.55157786    -0.39210
C293        C  0.41121992  0.29536742  0.49224594    -0.11490
C294        C  0.41127083  0.26822265  0.49641396     0.05520
C295        C  0.38378197  0.24140763  0.49889576    -0.06780
C296        C  0.35730703  0.24241360  0.49864085    -0.07520
C297        C  0.35694549  0.26926776  0.49440454    -0.02070
C298        C  0.38426355  0.29630388  0.49088643     0.04750
N299        N  0.38519395  0.32444677  0.48422694     0.67250
H300        H  0.43224838  0.31584379  0.48986349     0.16150
H301        H  0.33648934  0.22164309  0.50078730     0.15860
N302        N  0.38213990  0.21275665  0.49975435     0.74960
O303        O  0.40770067  0.34820829  0.49853576    -0.38490
O304        O  0.36527060  0.32612377  0.45905187    -0.38440
O305        O  0.36315162  0.19232408  0.52736668    -0.39140
O306        O  0.39633807  0.20646467  0.46757567    -0.39210
C307        C  0.24633462  0.22737414  0.71158751    -0.11490
C308        C  0.24973340  0.25285093  0.68671933     0.05520
C309        C  0.25331781  0.27753828  0.71569925    -0.06780
C310        C  0.25359684  0.27597263  0.76890022    -0.07520
C311        C  0.25063158  0.25060764  0.79375938    -0.02070
C312        C  0.24726351  0.22615145  0.76452823     0.04750
N313        N  0.24376123  0.19954823  0.78772116     0.67250
H314        H  0.24359375  0.20841370  0.68954339     0.16150
H315        H  0.25585860  0.29464419  0.79122831     0.15860
N316        N  0.25549065  0.30370499  0.69224989     0.74960
O317        O  0.22138472  0.17487036  0.77677612    -0.38490
O318        O  0.26564615  0.19982275  0.80958981    -0.38440
O319        O  0.24076038  0.30157162  0.65275485    -0.39140
O320        O  0.26937952  0.32863119  0.71422327    -0.39210
C321        C  0.22361120  0.23951347  0.26804826    -0.11490
C322        C  0.25028322  0.24749492  0.29382747     0.05520
C323        C  0.27696595  0.25808108  0.26598907    -0.06780
C324        C  0.27618674  0.26011180  0.21307527    -0.07520
C325        C  0.24936213  0.25130175  0.18718671    -0.02070
C326        C  0.22273977  0.24135017  0.21508948     0.04750
N327        N  0.19505352  0.23434861  0.19079063     0.67250
H328        H  0.20334010  0.23231633  0.28958041     0.16150
H329        H  0.29663956  0.26787671  0.19182697     0.15860
N330        N  0.30512368  0.26804781  0.29058367     0.74960
O331        O  0.17069425  0.21526146  0.20994982    -0.38490
O332        O  0.19459748  0.24986492  0.15427487    -0.38440
O333        O  0.30920878  0.25050828  0.31833735    -0.39140
O334        O  0.32731413  0.29225811  0.27732573    -0.39210
C335        C  0.26155679  0.39741670  0.95313503    -0.11490
C336        C  0.27829367  0.41731264  0.99158083     0.05520
C337        C  0.29560331  0.41027575  0.02452821    -0.06780
C338        C  0.29320712  0.38187737  0.02042076    -0.07520
C339        C  0.27465643  0.36093194  0.98400308    -0.02070
C340        C  0.25996840  0.36969930  0.94811869     0.04750
N341        N  0.24316505  0.35088594  0.90658044     0.67250
H342        H  0.24894017  0.40328319  0.92726076     0.16150
H343        H  0.30518706  0.37567841  0.04698612     0.15860
N344        N  0.31534755  0.43113233  0.06206155     0.74960
O345        O  0.21816049  0.34816621  0.89533002    -0.38490
O346        O  0.25546500  0.34148222  0.87586980    -0.38440
O347        O  0.31912698  0.45718089  0.06525621    -0.39140
O348        O  0.33103776  0.42433806  0.08980807    -0.39210
C349        C  0.25512998  0.11220655  0.99160333    -0.11490
C350        C  0.22790065  0.08648266  0.00024384     0.05520
C351        C  0.20165752  0.08861459  0.00537868    -0.06780
C352        C  0.20387189  0.11699610  0.00244449    -0.07520
C353        C  0.23143035  0.14274086  0.99442880    -0.02070
C354        C  0.25718410  0.14002600  0.98880722     0.04750
N355        N  0.28599103  0.16553531  0.98283847     0.67250
H356        H  0.27532614  0.11075698  0.98779713     0.16150
H357        H  0.18411576  0.11910266  0.00694574     0.15860
N358        N  0.17314570  0.06289387  0.01509905     0.74960
O359        O  0.29944108  0.18133253  0.02085933    -0.38490
O360        O  0.29939866  0.17017211  0.94103961    -0.38440
O361        O  0.17125429  0.04081460  0.03876499    -0.39140
O362        O  0.14950527  0.06317641  0.00378908    -0.39210
C363        C  0.11495341  0.20047103  0.00971015    -0.11490
C364        C  0.14124147  0.22765288  0.00216792     0.05520
C365        C  0.13966914  0.25406235  0.99892204    -0.06780
C366        C  0.11209714  0.25275147  0.00023799    -0.07520
C367        C  0.08548702  0.22586332  0.00638336    -0.02070
C368        C  0.08687796  0.19920582  0.01215937     0.04750
N369        N  0.06050291  0.17078100  0.01768236     0.67250
H370        H  0.11618699  0.18016576  0.01279782     0.16150
H371        H  0.11157838  0.27319773  0.99684300     0.15860
N372        N  0.16602922  0.28267250  0.99478013     0.74960
O373        O  0.05889634  0.14814916  0.99615526    -0.38490
O374        O  0.04140869  0.16708884  0.05087718    -0.38440
O375        O  0.16773844  0.30056125  0.96078303    -0.39140
O376        O  0.18591720  0.29148105  0.02862636    -0.39210
C377        C  0.40683709  0.28771832  0.03796305    -0.11490
C378        C  0.41716599  0.28081154  0.99347497     0.05520
C379        C  0.40104221  0.27634108  0.94788436    -0.06780
C380        C  0.37364242  0.27577203  0.94910768    -0.07520
C381        C  0.36210236  0.28047548  0.99422435    -0.02070
C382        C  0.37969639  0.28799811  0.03877866     0.04750
N383        N  0.36974238  0.29418869  0.08568375     0.67250
H384        H  0.41923136  0.29156648  0.07292261     0.16150
H385        H  0.36093234  0.27115793  0.91433872     0.15860
N386        N  0.41198745  0.27209645  0.90017959     0.74960
O387        O  0.37082207  0.28144840  0.12573389    -0.38490
O388        O  0.36593365  0.31650228  0.08906192    -0.38440
O389        O  0.39406974  0.25523399  0.86677990    -0.39140
O390        O  0.43915211  0.28775547  0.88903530    -0.39210
Zn391      Zn  0.28058377  0.78270136  0.03405722     1.49720
Zn392      Zn  0.26922792  0.73462094  0.94829003     1.49360
Zn393      Zn  0.21917594  0.71847810  0.03380897     1.49110
Zn394      Zn  0.23124718  0.76639484  0.94777565     1.49480
O395        O  0.25004208  0.75050782  0.99171015    -1.83350
O396        O  0.32135390  0.78645918  0.02442177    -0.73980
O397        O  0.25326982  0.69174720  0.96313864    -0.73800
O398        O  0.22946074  0.72896467  0.10752897    -0.73310
O399        O  0.31294921  0.75427702  0.96236005    -0.73990
O400        O  0.27028106  0.77348064  0.10804757    -0.73590
O401        O  0.21768062  0.67877080  0.02085291    -0.74180
O402        O  0.18829888  0.74840931  0.96462282    -0.73570
O403        O  0.26368029  0.73899924  0.87385841    -0.74320
O404        O  0.17813428  0.71470201  0.02462847    -0.73710
O405        O  0.23621672  0.76113348  0.87332270    -0.74180
O406        O  0.24848930  0.80991185  0.95961719    -0.74090
O407        O  0.28364430  0.82277030  0.01769096    -0.73880
C408        C  0.33059059  0.77367578  0.99381302     0.77910
C409        C  0.23380535  0.67247680  0.99232284     0.78400
C410        C  0.24966116  0.75132767  0.13124057     0.77360
C411        C  0.17034500  0.72961433  0.99622368     0.77740
C412        C  0.25002999  0.75001307  0.84987332     0.78870
C413        C  0.26893782  0.82967575  0.98692825     0.77920
Zn414      Zn  0.23132755  0.76521766  0.44583539     1.49720
Zn415      Zn  0.26473565  0.72888831  0.44917192     1.49360
Zn416      Zn  0.28063697  0.78162768  0.53132403     1.49110
Zn417      Zn  0.21725755  0.71902450  0.53523909     1.49480
O418        O  0.24870707  0.74872314  0.49126110    -1.83350
O419        O  0.23731875  0.75989256  0.37245994    -0.73980
O420        O  0.30775274  0.74609769  0.46462957    -0.73800
O421        O  0.28440328  0.82213413  0.51394900    -0.73310
O422        O  0.26101657  0.73390162  0.37413243    -0.73990
O423        O  0.24809127  0.80863192  0.45814717    -0.73590
O424        O  0.32071315  0.78323569  0.51970501    -0.74180
O425        O  0.22837251  0.73069403  0.60806700    -0.73570
O426        O  0.24588888  0.68521673  0.46538743    -0.74320
O427        O  0.27074615  0.77392856  0.60655113    -0.73710
O428        O  0.21374463  0.67831414  0.52710648    -0.74180
O429        O  0.17685454  0.71629675  0.52272065    -0.74090
O430        O  0.18817592  0.74697555  0.45764217    -0.73880
C431        C  0.24972977  0.74715100  0.34971325     0.77910
C432        C  0.32715743  0.76676417  0.49225663     0.78400
C433        C  0.26891027  0.82871159  0.48437450     0.77360
C434        C  0.24959610  0.75269179  0.63075116     0.77740
C435        C  0.22680203  0.66863631  0.49795489     0.78870
C436        C  0.16950424  0.72950802  0.48969526     0.77920
Zn437      Zn  0.99932523  0.78254310  0.04319685     1.49720
Zn438      Zn  0.46479582  0.73345709  0.95715384     1.49360
Zn439      Zn  0.03371823  0.76661184  0.95930266     1.49110
Zn440      Zn  0.99833694  0.71806540  0.04419115     1.49480
O441        O  0.99893978  0.75010796  0.00198913    -1.83350
O442        O  0.46299462  0.78733438  0.02841933    -0.73980
O443        O  0.47562187  0.73712869  0.88332170    -0.73800
O444        O  0.06061971  0.80914076  0.97552636    -0.73310
O445        O  0.44075346  0.75359705  0.96778386    -0.73990
O446        O  0.03745561  0.82230770  0.03241607    -0.73590
O447        O  0.02473427  0.76334779  0.88538327    -0.74180
O448        O  0.03551270  0.71367999  0.03325673    -0.73570
O449        O  0.43778714  0.69090815  0.97304676    -0.74320
O450        O  0.05774973  0.74704154  0.97281074    -0.73710
O451        O  0.46010276  0.67832966  0.03241584    -0.74180
O452        O  0.99899693  0.72952973  0.11785864    -0.74090
O453        O  0.99894272  0.77267946  0.11738282    -0.73880
C454        C  0.44190519  0.77396185  0.99651480     0.77910
C455        C  0.00054105  0.75047575  0.86069452     0.78400
C456        C  0.06009320  0.82834736  0.00509199     0.77360
C457        C  0.05733300  0.72779815  0.00323012     0.77740
C458        C  0.43791318  0.67198753  0.00352303     0.78870
C459        C  0.99948934  0.75147881  0.14119912     0.77920
Zn460      Zn  0.00070733  0.78224732  0.46145281     1.49720
Zn461      Zn  0.46665363  0.73227852  0.54497450     1.49360
Zn462      Zn  0.99771497  0.71699618  0.45525963     1.49110
Zn463      Zn  0.03428143  0.76299161  0.54375316     1.49480
O464        O  0.00003277  0.74889779  0.50007864    -1.83350
O465        O  0.46204935  0.78407848  0.47315992    -0.73980
O466        O  0.44299678  0.68919977  0.53441239    -0.73800
O467        O  0.99721004  0.72875144  0.38283489    -0.73310
O468        O  0.43963336  0.74793965  0.52952491    -0.73990
O469        O  0.00113975  0.77371593  0.38610636    -0.73590
O470        O  0.46035222  0.67711398  0.46706316    -0.74180
O471        O  0.05744229  0.74266880  0.52790764    -0.73570
O472        O  0.47636919  0.73838847  0.61815288    -0.74320
O473        O  0.03400774  0.71178709  0.46377971    -0.73710
O474        O  0.02533166  0.75915920  0.61855366    -0.74180
O475        O  0.06087577  0.80560414  0.53014211    -0.74090
O476        O  0.03851379  0.82215407  0.47840434    -0.73880
C477        C  0.43947444  0.76732468  0.50029973     0.77910
C478        C  0.44112282  0.67007459  0.50211630     0.78400
C479        C  0.99887593  0.75150377  0.36093130     0.77360
C480        C  0.05567672  0.72394615  0.49478773     0.77740
C481        C  0.00074885  0.74881711  0.64200004     0.78870
C482        C  0.06078482  0.82678531  0.50602628     0.77920
Zn483      Zn  0.26514032  0.53309697  0.05294685     1.49720
Zn484      Zn  0.21689040  0.49875194  0.96609438     1.49360
Zn485      Zn  0.28196422  0.50226282  0.96378593     1.49110
Zn486      Zn  0.23434339  0.96426930  0.04893015     1.49480
O487        O  0.24952381  0.49950828  0.00710576    -1.83350
O488        O  0.24849802  0.55929443  0.03604166    -0.73980
O489        O  0.22574964  0.49732249  0.89168802    -0.73800
O490        O  0.32144963  0.54002247  0.97821750    -0.73310
O491        O  0.21408830  0.53655194  0.97646219    -0.73990
O492        O  0.30870845  0.55892515  0.04315067    -0.73590
O493        O  0.27119774  0.50246838  0.89034624    -0.74180
O494        O  0.25363081  0.93986888  0.03137687    -0.73570
O495        O  0.17696834  0.96181041  0.98038395    -0.74320
O496        O  0.28662462  0.96563637  0.97147665    -0.73710
O497        O  0.19117191  0.93858469  0.03491759    -0.74180
O498        O  0.23883797  0.97310024  0.12377310    -0.74090
O499        O  0.25719824  0.52189738  0.12635502    -0.73880
C500        C  0.22934908  0.55881846  0.00529152     0.77910
C501        C  0.24802871  0.49927103  0.86757041     0.78400
C502        C  0.32795814  0.56022864  0.01165015     0.77360
C503        C  0.27330178  0.94273249  0.99943250     0.77740
C504        C  0.17111771  0.93939908  0.00799852     0.78870
C505        C  0.24748129  0.49706360  0.14870736     0.77920
Zn506      Zn  0.21784221  0.49957292  0.46766014     1.49720
Zn507      Zn  0.26760334  0.53310930  0.55168181     1.49360
Zn508      Zn  0.23603792  0.96433156  0.54894956     1.49110
Zn509      Zn  0.28241034  0.50155774  0.46179252     1.49480
O510        O  0.25073956  0.49941140  0.50662829    -1.83350
O511        O  0.21376659  0.53644844  0.48400965    -0.73980
O512        O  0.26239450  0.52257511  0.62509145    -0.73800
O513        O  0.19295144  0.93811906  0.53390914    -0.73310
O514        O  0.25028876  0.55942087  0.53931033    -0.73990
O515        O  0.17836166  0.96146390  0.48047822    -0.73590
O516        O  0.24082925  0.97345751  0.62433618    -0.74180
O517        O  0.28804929  0.96551027  0.47013314    -0.73570
O518        O  0.31040412  0.55803574  0.53865145    -0.74320
O519        O  0.25579753  0.94031967  0.53130516    -0.73710
O520        O  0.32184992  0.53987019  0.47152312    -0.74180
O521        O  0.26999734  0.50081270  0.38961136    -0.74090
O522        O  0.22667008  0.50047898  0.39244737    -0.73880
C523        C  0.22929945  0.55860168  0.51307926     0.77910
C524        C  0.25183009  0.49802402  0.64849412     0.78400
C525        C  0.17270639  0.93871198  0.50713194     0.77360
C526        C  0.27517438  0.94292459  0.49890457     0.77740
C527        C  0.32884694  0.56010245  0.50497390     0.78870
C528        C  0.24797621  0.50067118  0.36756939     0.77920
C529        C  0.27056363  0.52266267  0.78613234    -0.11490
C530        C  0.24761036  0.49855666  0.81164899     0.05520
C531        C  0.22674660  0.97355799  0.78347833    -0.06780
C532        C  0.22928221  0.97370849  0.73044739    -0.07520
C533        C  0.25187479  0.49814169  0.70474014    -0.01890
C534        C  0.27314866  0.52275395  0.73323480     0.04750
N535        N  0.29821481  0.54734750  0.70961757     0.67250
H536        H  0.28710568  0.54136647  0.80781387     0.16150
H537        H  0.21294553  0.95477275  0.70898556     0.15860
N538        N  0.20374502  0.94740365  0.80762938     0.74960
O539        O  0.30742777  0.57347387  0.72586756    -0.38490
O540        O  0.31386389  0.54264414  0.67807465    -0.38440
O541        O  0.18772736  0.94957290  0.84164181    -0.39140
O542        O  0.19652257  0.92199083  0.78985180    -0.39210
C543        C  0.25604152  0.98162552  0.28648435    -0.11490
C544        C  0.24717969  0.50003848  0.31160168     0.05520
C545        C  0.23773858  0.51699327  0.28281896    -0.06780
C546        C  0.23733660  0.51488192  0.22971040    -0.07520
C547        C  0.24609278  0.49635292  0.20466564    -0.02070
C548        C  0.25522468  0.97926718  0.23358615     0.04750
N549        N  0.26491832  0.96039420  0.21011311     0.67250
H550        H  0.26321069  0.96848940  0.30826425     0.16150
H551        H  0.23072359  0.52834333  0.20760486     0.15860
N552        N  0.22998227  0.53746751  0.30633326     0.74960
O553        O  0.29002265  0.96341624  0.22146100    -0.38490
O554        O  0.24631483  0.93709418  0.18728601    -0.38440
O555        O  0.24534576  0.55383758  0.34256445    -0.39140
O556        O  0.21043134  0.54220963  0.28650638    -0.39210
C557        C  0.13807520  0.88893087  0.54144875    -0.11490
C558        C  0.14254851  0.91164719  0.50750129     0.05520
C559        C  0.11859824  0.90713506  0.47539595    -0.06780
C560        C  0.09156773  0.87995465  0.47722486    -0.07520
C561        C  0.08781947  0.85684841  0.50988633    -0.02070
C562        C  0.11144181  0.86210795  0.54338098     0.04750
N563        N  0.10913914  0.84053985  0.57986871     0.67250
H564        H  0.15555981  0.89181437  0.56742480     0.16150
H565        H  0.07386605  0.87647766  0.45129173     0.15860
N566        N  0.12137935  0.92915919  0.43958559     0.74960
O567        O  0.12872500  0.83262196  0.58134583    -0.38490
O568        O  0.09061821  0.83327807  0.61559081    -0.38440
O569        O  0.13978340  0.93624704  0.40371937    -0.39140
O570        O  0.10159357  0.93678423  0.43761511    -0.39210
C571        C  0.38957676  0.63900135  0.52932586    -0.11490
C572        C  0.41418774  0.64027805  0.50441845     0.05520
C573        C  0.41095484  0.61435122  0.47989210    -0.06780
C574        C  0.38284458  0.58829047  0.47992815    -0.07520
C575        C  0.35822525  0.58758459  0.50430449    -0.02070
C576        C  0.36188381  0.61365629  0.52858736     0.04750
N577        N  0.33735365  0.61573144  0.54980623     0.67250
H578        H  0.39116543  0.65861775  0.54740687     0.16150
H579        H  0.38034411  0.56833240  0.46174328     0.15860
N580        N  0.43576925  0.61365105  0.45650712     0.74960
O581        O  0.33938621  0.62604255  0.59396853    -0.38490
O582        O  0.31629410  0.61260738  0.52145759    -0.38440
O583        O  0.46067187  0.62523535  0.47864301    -0.39140
O584        O  0.43178289  0.59770101  0.41774766    -0.39210
C585        C  0.47861872  0.72629625  0.77856428    -0.11490
C586        C  0.00127507  0.75053568  0.80473951     0.05520
C587        C  0.02376387  0.77430172  0.77685715    -0.06780
C588        C  0.02313441  0.77323709  0.72384941    -0.07520
C589        C  0.00042043  0.74901415  0.69782415    -0.02070
C590        C  0.47791461  0.72532081  0.72563851     0.04750
N591        N  0.45492286  0.69951452  0.70093836     0.67250
H592        H  0.46135785  0.70779161  0.79934206     0.16150
H593        H  0.04036030  0.79166570  0.70287039     0.15860
N594        N  0.04661786  0.80024061  0.80145034     0.74960
O595        O  0.45354135  0.67463520  0.70730658    -0.38490
O596        O  0.43285861  0.70039284  0.68223162    -0.38440
O597        O  0.06868247  0.79952576  0.82053567    -0.39140
O598        O  0.04795888  0.82505866  0.79447779    -0.39210
C599        C  0.48643733  0.76572320  0.22364012    -0.11490
C600        C  0.00061798  0.75239908  0.19742677     0.05520
C601        C  0.01465779  0.73937775  0.22546128    -0.06780
C602        C  0.01301457  0.73891787  0.27852555    -0.07520
C603        C  0.99859649  0.75195362  0.30475259    -0.02070
C604        C  0.48493161  0.76540437  0.27684133     0.04750
N605        N  0.46811954  0.77732557  0.30134997     0.67250
H606        H  0.47530157  0.77537943  0.20244281     0.16150
H607        H  0.02412406  0.72921364  0.29968376     0.15860
N608        N  0.03189684  0.72789654  0.20111987     0.74960
O609        O  0.46779208  0.79973723  0.28303058    -0.38490
O610        O  0.45015079  0.76301969  0.33641270    -0.38440
O611        O  0.05046879  0.74287176  0.16721542    -0.39140
O612        O  0.03204211  0.70525948  0.21879337    -0.39210
C613        C  0.14151278  0.88514555  0.01205936    -0.11490
C614        C  0.14147675  0.91215718  0.00685518     0.05520
C615        C  0.11381864  0.91171031  0.00349116    -0.06780
C616        C  0.08715049  0.88418061  0.00537092    -0.07520
C617        C  0.08765387  0.85729021  0.00961455    -0.02070
C618        C  0.11525309  0.85797503  0.01432682     0.04750
N619        N  0.11715872  0.83142878  0.02298171     0.67250
H620        H  0.16246353  0.88515513  0.01527051     0.16150
H621        H  0.06600299  0.88371031  0.00177174     0.15860
N622        N  0.11215117  0.93857028  0.99947423     0.74960
O623        O  0.13950242  0.82990534  0.00740397    -0.38490
O624        O  0.09923934  0.81165813  0.05278175    -0.38440
O625        O  0.12388045  0.95562796  0.96221189    -0.39140
O626        O  0.09405739  0.94208384  0.02691411    -0.39210
C627        C  0.41128384  0.61614650  0.00199265    -0.11490
C628        C  0.41051042  0.64288224  0.00709843     0.05520
C629        C  0.38301489  0.64182911  0.01532829    -0.06780
C630        C  0.35706730  0.61447655  0.01831056    -0.07520
C631        C  0.35734876  0.58761382  0.01184204    -0.02070
C632        C  0.38488457  0.58830678  0.00387698     0.04750
N633        N  0.38666540  0.56141127  0.99916462     0.67250
H634        H  0.43248967  0.61701978  0.99625169     0.16150
H635        H  0.33618762  0.61434798  0.02408666     0.15860
N636        N  0.38102532  0.66839844  0.02166495     0.74960
O637        O  0.40770086  0.56144858  0.97464311    -0.38490
O638        O  0.36933837  0.53850380  0.02397114    -0.38440
O639        O  0.38195685  0.68332478  0.98324876    -0.39140
O640        O  0.37171003  0.67301337  0.06307408    -0.39210
C641        C  0.25814556  0.89538692  0.45762966    -0.11490
C642        C  0.27908117  0.91691254  0.48990284     0.05520
C643        C  0.29977081  0.91114812  0.51573599    -0.06780
C644        C  0.29665528  0.88238498  0.51161178    -0.07520
C645        C  0.27421191  0.85992331  0.48149554    -0.02070
C646        C  0.25576317  0.86739975  0.45204994     0.04750
N647        N  0.23408446  0.84706108  0.41678807     0.67250
H648        H  0.24292390  0.90031270  0.43690393     0.16150
H649        H  0.31145638  0.87724168  0.53298165     0.15860
N650        N  0.32360967  0.93360784  0.54605465     0.74960
O651        O  0.20882740  0.84529967  0.41450554    -0.38490
O652        O  0.24236281  0.83694298  0.38037930    -0.38440
O653        O  0.32821110  0.95998706  0.54775970    -0.39140
O654        O  0.34180823  0.92774648  0.56821113    -0.39210
C655        C  0.23912409  0.63513441  0.54339689    -0.11490
C656        C  0.22218388  0.63838432  0.50525978     0.05520
C657        C  0.20397171  0.61382811  0.47361800    -0.06780
C658        C  0.20562845  0.58739566  0.47873887    -0.07520
C659        C  0.22419680  0.58473333  0.51506702    -0.02070
C660        C  0.23990928  0.60863090  0.54959830     0.04750
N661        N  0.25683672  0.60665433  0.59115797     0.67250
H662        H  0.25229825  0.65373692  0.56846713     0.16150
H663        H  0.19301224  0.56901869  0.45306860     0.15860
N664        N  0.18390766  0.61504027  0.43660130     0.74960
O665        O  0.28181110  0.62861206  0.60219547    -0.38490
O666        O  0.24460069  0.58551437  0.62228041    -0.38440
O667        O  0.18178125  0.63820326  0.43084584    -0.39140
O668        O  0.16655091  0.59206349  0.41162888    -0.39210
C669        C  0.10661598  0.74604207  0.46850421    -0.11490
C670        C  0.08216014  0.72078312  0.48782493     0.05520
C671        C  0.08568733  0.69705818  0.50696828    -0.06780
C672        C  0.11453112  0.70017665  0.50712003    -0.07520
C673        C  0.13929064  0.72621602  0.48909620    -0.02070
C674        C  0.13498574  0.74941366  0.46995697     0.04750
N675        N  0.15934750  0.77758608  0.45525602     0.67250
H676        H  0.10394813  0.76449301  0.45523339     0.16150
H677        H  0.11777715  0.68231802  0.52138994     0.15860
N678        N  0.06093795  0.67036046  0.52695132     0.74960
O679        O  0.15773372  0.78952225  0.41460235    -0.38490
O680        O  0.17955085  0.79285105  0.48689825    -0.38440
O681        O  0.03445381  0.66396902  0.51769350    -0.39140
O682        O  0.06543722  0.65198974  0.55157032    -0.39210
C683        C  0.41122102  0.79536808  0.49224073    -0.11490
C684        C  0.41127334  0.76822392  0.49640619     0.05520
C685        C  0.38378514  0.74140808  0.49888689    -0.06780
C686        C  0.35730947  0.74241255  0.49863374    -0.07520
C687        C  0.35694643  0.76926603  0.49440049    -0.02070
C688        C  0.38426380  0.79630301  0.49088318     0.04750
N689        N  0.38519261  0.82444532  0.48422662     0.67250
H690        H  0.43224893  0.81584509  0.48985918     0.16150
H691        H  0.33649240  0.72164140  0.50077973     0.15860
N692        N  0.38214449  0.71275772  0.49974361     0.74960
O693        O  0.40769777  0.84820686  0.49853988    -0.38490
O694        O  0.36526990  0.82612212  0.45904919    -0.38440
O695        O  0.36315599  0.69232390  0.52735373    -0.39140
O696        O  0.39634421  0.70646756  0.46756527    -0.39210
C697        C  0.24634340  0.72737247  0.71158676    -0.11490
C698        C  0.24974293  0.75284979  0.68671910     0.05520
C699        C  0.25333579  0.77754001  0.71569931    -0.06780
C700        C  0.25362472  0.77597784  0.76889965    -0.07520
C701        C  0.25065949  0.75061301  0.79375892    -0.02070
C702        C  0.24728057  0.72615242  0.76452743     0.04750
N703        N  0.24377473  0.69954762  0.78771995     0.67250
H704        H  0.24359561  0.70840965  0.68954205     0.16150
H705        H  0.25589326  0.79465200  0.79122787     0.15860
N706        N  0.25550628  0.80370605  0.69225120     0.74960
O707        O  0.22139708  0.67487101  0.77677266    -0.38490
O708        O  0.26565737  0.69981924  0.80959184    -0.38440
O709        O  0.24076871  0.80157094  0.65276495    -0.39140
O710        O  0.26939951  0.82863334  0.71421984    -0.39210
C711        C  0.22363239  0.73952220  0.26803639    -0.11490
C712        C  0.25030012  0.74750159  0.29382785     0.05520
C713        C  0.27698749  0.75809025  0.26600208    -0.06780
C714        C  0.27621728  0.76012556  0.21308783    -0.07520
C715        C  0.24939677  0.75131645  0.18718659    -0.02070
C716        C  0.22276976  0.74136297  0.21507732     0.04750
N717        N  0.19508709  0.73436221  0.19076541     0.67250
H718        H  0.20335773  0.73232308  0.28955892     0.16150
H719        H  0.29667356  0.76789242  0.19184919     0.15860
N720        N  0.30514090  0.76805448  0.29061054     0.74960
O721        O  0.17072503  0.71527219  0.20991222    -0.38490
O722        O  0.19463618  0.74988113  0.15424965    -0.38440
O723        O  0.30922233  0.75051084  0.31835961    -0.39140
O724        O  0.32733269  0.79226812  0.27736934    -0.39210
C725        C  0.26156241  0.89741986  0.95316273    -0.11490
C726        C  0.27828974  0.91731523  0.99161538     0.05520
C727        C  0.29561133  0.91028932  0.02455512    -0.06780
C728        C  0.29323411  0.88189927  0.02043408    -0.07520
C729        C  0.27469288  0.86095314  0.98400896    -0.02070
C730        C  0.25999521  0.86971282  0.94813048     0.04750
N731        N  0.24320462  0.85090242  0.90658029     0.67250
H732        H  0.24893997  0.90328011  0.92729055     0.16150
H733        H  0.30522022  0.87570625  0.04699651     0.15860
N734        N  0.31534939  0.93114733  0.06209344     0.74960
O735        O  0.21819595  0.84817031  0.89532198    -0.38490
O736        O  0.25551874  0.84151416  0.87586978    -0.38440
O737        O  0.31906384  0.95716866  0.06537704    -0.39140
O738        O  0.33109067  0.92438284  0.08976575    -0.39210
C739        C  0.25514759  0.61220872  0.99162310    -0.11490
C740        C  0.22791589  0.58648661  0.00026147     0.05520
C741        C  0.20167539  0.58862402  0.00539084    -0.06780
C742        C  0.20389436  0.61700773  0.00245107    -0.07520
C743        C  0.23145513  0.64275053  0.99443711    -0.02070
C744        C  0.25720627  0.64003025  0.98882196     0.04750
N745        N  0.28601538  0.66553648  0.98285625     0.67250
H746        H  0.27534231  0.61075620  0.98782048     0.16150
H747        H  0.18413990  0.61911758  0.00694846     0.15860
N748        N  0.17316175  0.56290677  0.01511395     0.74960
O749        O  0.29947460  0.68131951  0.02088482    -0.38490
O750        O  0.29941632  0.67018146  0.94104924    -0.38440
O751        O  0.17126674  0.54083190  0.03880000    -0.39140
O752        O  0.14952344  0.56319028  0.00379101    -0.39210
C753        C  0.11473100  0.70049804  0.00974406    -0.11490
C754        C  0.14093743  0.72774794  0.00224880     0.05520
C755        C  0.13908771  0.75404265  0.99893358    -0.06780
C756        C  0.11148086  0.75253433  0.99999782    -0.07520
C757        C  0.08497691  0.72556961  0.00613088    -0.02070
C758        C  0.08658620  0.69902983  0.01212344     0.04750
N759        N  0.06036955  0.67054722  0.01788224     0.67250
H760        H  0.11612323  0.68028250  0.01288628     0.16150
H761        H  0.11081804  0.77307836  0.99648330     0.15860
N762        N  0.16521521  0.78273090  0.99535402     0.74960
O763        O  0.05879319  0.64797550  0.99614429    -0.38490
O764        O  0.04128072  0.66685242  0.05108482    -0.38440
O765        O  0.16737038  0.80043370  0.96064561    -0.39140
O766        O  0.18543580  0.79106077  0.02845459    -0.39210
C767        C  0.40686788  0.78772462  0.03795928    -0.11490
C768        C  0.41719459  0.78081662  0.99347018     0.05520
C769        C  0.40107316  0.77635093  0.94787882    -0.06780
C770        C  0.37367660  0.77578797  0.94910198    -0.07520
C771        C  0.36213792  0.78049154  0.99422004    -0.02070
C772        C  0.37973006  0.78800906  0.03877556     0.04750
N773        N  0.36977581  0.79419699  0.08568279     0.67250
H774        H  0.41926096  0.79156924  0.07291936     0.16150
H775        H  0.36096730  0.77117716  0.91433270     0.15860
N776        N  0.41201695  0.77210417  0.90017429     0.74960
O777        O  0.37085094  0.78145084  0.12572869    -0.38490
O778        O  0.36597153  0.81651303  0.08906831    -0.38440
O779        O  0.39409811  0.75524125  0.86677630    -0.39140
O780        O  0.43918170  0.78776112  0.88902889    -0.39210
Zn781      Zn  0.78054225  0.28267930  0.03405323     1.49720
Zn782      Zn  0.76919162  0.23460776  0.94828769     1.49360
Zn783      Zn  0.71918875  0.21845032  0.03383841     1.49110
Zn784      Zn  0.73125256  0.26638072  0.94775753     1.49480
O785        O  0.75000901  0.25049084  0.99170509    -1.83350
O786        O  0.82131430  0.28643848  0.02442613    -0.73980
O787        O  0.75323450  0.19173506  0.96312827    -0.73800
O788        O  0.72942003  0.22894512  0.10753838    -0.73310
O789        O  0.81291341  0.25426188  0.96235825    -0.73990
O790        O  0.77023874  0.27346041  0.10804224    -0.73590
O791        O  0.71765856  0.17875478  0.02086305    -0.74180
O792        O  0.68845042  0.24822689  0.96452212    -0.73570
O793        O  0.76364682  0.23899096  0.87385941    -0.74320
O794        O  0.67828616  0.21456997  0.02466514    -0.73710
O795        O  0.73618267  0.26112162  0.87331961    -0.74180
O796        O  0.74842857  0.30988718  0.95963269    -0.74090
O797        O  0.78360226  0.32274508  0.01767598    -0.73880
C798        C  0.83055356  0.27365818  0.99381563     0.77910
C799        C  0.73377596  0.17246344  0.99231726     0.78400
C800        C  0.74961961  0.25131045  0.13124179     0.77360
C801        C  0.67052097  0.22941309  0.99609581     0.77740
C802        C  0.74999655  0.25000359  0.84987225     0.78870
C803        C  0.76888928  0.32965120  0.98692789     0.77920
Zn804      Zn  0.73132642  0.26521879  0.44583975     1.49720
Zn805      Zn  0.76473610  0.22889064  0.44916907     1.49360
Zn806      Zn  0.78063534  0.28162964  0.53132650     1.49110
Zn807      Zn  0.71725806  0.21902207  0.53523791     1.49480
O808        O  0.74870687  0.24872383  0.49126209    -1.83350
O809        O  0.73731314  0.25989207  0.37246384    -0.73980
O810        O  0.80775375  0.24610286  0.46462549    -0.73800
O811        O  0.78440055  0.32213661  0.51395186    -0.73310
O812        O  0.76101120  0.23390125  0.37412919    -0.73990
O813        O  0.74808739  0.30863293  0.45815229    -0.73590
O814        O  0.82071173  0.28323677  0.51970962    -0.74180
O815        O  0.72837038  0.23069423  0.60806500    -0.73570
O816        O  0.74589414  0.18521882  0.46538525    -0.74320
O817        O  0.77074189  0.27393095  0.60655377    -0.73710
O818        O  0.71375124  0.17831321  0.52710806    -0.74180
O819        O  0.67685287  0.21629034  0.52271900    -0.74090
O820        O  0.68817590  0.24697513  0.45764954    -0.73880
C821        C  0.74972151  0.24714915  0.34971331     0.77910
C822        C  0.82715711  0.26676723  0.49225766     0.78400
C823        C  0.76890589  0.32871320  0.48437952     0.77360
C824        C  0.74959123  0.25269330  0.63075140     0.77740
C825        C  0.72680974  0.16863718  0.49795488     0.78870
C826        C  0.66950333  0.22950462  0.48969820     0.77920
Zn827      Zn  0.49930583  0.28253843  0.04319525     1.49720
Zn828      Zn  0.96477000  0.23345157  0.95715983     1.49360
Zn829      Zn  0.53375147  0.26657860  0.95930721     1.49110
Zn830      Zn  0.49844879  0.21805938  0.04413336     1.49480
O831        O  0.49892450  0.25007952  0.00201159    -1.83350
O832        O  0.96297320  0.28733634  0.02841644    -0.73980
O833        O  0.97559652  0.23712740  0.88332614    -0.73800
O834        O  0.56060012  0.30910730  0.97554854    -0.73310
O835        O  0.94072664  0.25359255  0.96779363    -0.73990
O836        O  0.53744687  0.32229682  0.03240957    -0.73590
O837        O  0.52471207  0.26333805  0.88539268    -0.74180
O838        O  0.53600142  0.21395186  0.03314258    -0.73570
O839        O  0.93776033  0.19090428  0.97304524    -0.74320
O840        O  0.55828225  0.24739461  0.97281021    -0.73710
O841        O  0.96008790  0.17832714  0.03241772    -0.74180
O842        O  0.49898295  0.22952938  0.11785300    -0.74090
O843        O  0.49892655  0.27268315  0.11738676    -0.73880
C844        C  0.94187985  0.27395993  0.99651909     0.77910
C845        C  0.50051716  0.25047600  0.86070279     0.78400
C846        C  0.56008748  0.32832085  0.00510856     0.77360
C847        C  0.55792032  0.22822514  0.00336443     0.77740
C848        C  0.93788576  0.17198900  0.00353790     0.78870
C849        C  0.49946742  0.25147804  0.14120043     0.77920
Zn850      Zn  0.50070530  0.28224813  0.46146528     1.49720
Zn851      Zn  0.96665392  0.23227959  0.54498143     1.49360
Zn852      Zn  0.49771700  0.21700007  0.45526492     1.49110
Zn853      Zn  0.53428135  0.26299193  0.54376429     1.49480
O854        O  0.50003329  0.24889930  0.50008767    -1.83350
O855        O  0.96204752  0.28407871  0.47317215    -0.73980
O856        O  0.94300260  0.18920076  0.53442527    -0.73800
O857        O  0.49720951  0.22875630  0.38284021    -0.73310
O858        O  0.93962991  0.24793597  0.52952916    -0.73990
O859        O  0.50113808  0.27372014  0.38611862    -0.73590
O860        O  0.96035680  0.17711681  0.46707191    -0.74180
O861        O  0.55744269  0.24266879  0.52791879    -0.73570
O862        O  0.97636844  0.23839320  0.61815826    -0.74320
O863        O  0.53401052  0.21179225  0.46378357    -0.73710
O864        O  0.52533059  0.25916009  0.61856586    -0.74180
O865        O  0.56087427  0.30560476  0.53015360    -0.74090
O866        O  0.53850904  0.32215370  0.47842034    -0.73880
C867        C  0.93947151  0.26732258  0.50030747     0.77910
C868        C  0.94112940  0.17007614  0.50212884     0.78400
C869        C  0.49887409  0.25150909  0.36094013     0.77360
C870        C  0.55567798  0.22394823  0.49479510     0.77740
C871        C  0.50074681  0.24882025  0.64200875     0.78870
C872        C  0.56078072  0.32678556  0.50604059     0.77920
Zn873      Zn  0.76512099  0.03309556  0.05294928     1.49720
Zn874      Zn  0.71689352  0.99875980  0.96606966     1.49360
Zn875      Zn  0.78195890  0.00226011  0.96380302     1.49110
Zn876      Zn  0.73435828  0.46426579  0.04892816     1.49480
O877        O  0.74951473  0.99950970  0.00710531    -1.83350
O878        O  0.74847656  0.05929101  0.03604532    -0.73980
O879        O  0.72576039  0.99732438  0.89167018    -0.73800
O880        O  0.82143583  0.04002117  0.97823514    -0.73310
O881        O  0.71409259  0.03655832  0.97642387    -0.73990
O882        O  0.80868522  0.05892405  0.04315636    -0.73590
O883        O  0.77120282  0.00245602  0.89035552    -0.74180
O884        O  0.75365698  0.43987667  0.03137938    -0.73570
O885        O  0.67696882  0.46179127  0.98041391    -0.74320
O886        O  0.78662170  0.46563142  0.97143322    -0.73710
O887        O  0.69118834  0.43856170  0.03490934    -0.74180
O888        O  0.73884345  0.47309756  0.12377038    -0.74090
O889        O  0.75718508  0.02189855  0.12635699    -0.73880
C890        C  0.72933849  0.05881818  0.00527348     0.77910
C891        C  0.74803931  0.99926302  0.86756641     0.78400
C892        C  0.82793787  0.06022793  0.01166311     0.77360
C893        C  0.77331253  0.44273359  0.99940723     0.77740
C894        C  0.67112738  0.43937363  0.00800627     0.78870
C895        C  0.74747557  0.99706617  0.14871005     0.77920
Zn896      Zn  0.71785487  0.99957326  0.46766085     1.49720
Zn897      Zn  0.76761285  0.03310667  0.55168678     1.49360
Zn898      Zn  0.73602828  0.46433516  0.54895561     1.49110
Zn899      Zn  0.78242431  0.00155919  0.46179514     1.49480
O900        O  0.75075115  0.99941048  0.50662896    -1.83350
O901        O  0.71378100  0.03645039  0.48400937    -0.73980
O902        O  0.76240576  0.02256802  0.62509432    -0.73800
O903        O  0.69294275  0.43812228  0.53391510    -0.73310
O904        O  0.75029902  0.05942021  0.53931824    -0.73990
O905        O  0.67835058  0.46146451  0.48048282    -0.73590
O906        O  0.74081528  0.47346456  0.62434218    -0.74180
O907        O  0.78803372  0.46550770  0.47013400    -0.73570
O908        O  0.81041371  0.05803343  0.53865974    -0.74320
O909        O  0.75578855  0.44032216  0.53131741    -0.73710
O910        O  0.82186308  0.03987059  0.47153203    -0.74180
O911        O  0.77001447  0.00081713  0.38961289    -0.74090
O912        O  0.72668621  0.00048147  0.39245030    -0.73880
C913        C  0.72931216  0.05860279  0.51308189     0.77910
C914        C  0.75184447  0.99801561  0.64849226     0.78400
C915        C  0.67269681  0.43871391  0.50713879     0.77360
C916        C  0.77516211  0.44292442  0.49891169     0.77740
C917        C  0.82885826  0.06010138  0.50498475     0.78870
C918        C  0.74799315  0.00067569  0.36757184     0.77920
C919        C  0.77057944  0.02265116  0.78613030    -0.11490
C920        C  0.74762732  0.99854362  0.81164583     0.05520
C921        C  0.72672433  0.47357469  0.78348094    -0.06780
C922        C  0.72926023  0.47372338  0.73045014    -0.07520
C923        C  0.75189287  0.99813009  0.70473796    -0.01890
C924        C  0.77316599  0.02274250  0.73323309     0.04750
N925        N  0.79823262  0.04733614  0.70961650     0.67250
H926        H  0.78711882  0.04135642  0.80781255     0.16150
H927        H  0.71292103  0.45478889  0.70898903     0.15860
N928        N  0.70371612  0.44742562  0.80763236     0.74960
O929        O  0.80744975  0.07346185  0.72587341    -0.38490
O930        O  0.81387838  0.04263257  0.67806661    -0.38440
O931        O  0.68768854  0.44960342  0.84161625    -0.39140
O932        O  0.69649352  0.42200969  0.78986948    -0.39210
C933        C  0.75602309  0.48161509  0.28648791    -0.11490
C934        C  0.74719665  0.00004592  0.31160440     0.05520
C935        C  0.73775106  0.01699925  0.28282832    -0.06780
C936        C  0.73734115  0.01488564  0.22972000    -0.07520
C937        C  0.74609612  0.99635760  0.20466873    -0.02070
C938        C  0.75521196  0.47925736  0.23358990     0.04750
N939        N  0.76490105  0.46037879  0.21012439     0.67250
H940        H  0.76318702  0.46847639  0.30827274     0.16150
H941        H  0.73072317  0.02834485  0.20761944     0.15860
N942        N  0.72999875  0.03747481  0.30634917     0.74960
O943        O  0.79000092  0.46339306  0.22148324    -0.38490
O944        O  0.74629545  0.43708078  0.18729502    -0.38440
O945        O  0.74536714  0.05384506  0.34257644    -0.39140
O946        O  0.71044673  0.04221834  0.28653084    -0.39210
C947        C  0.63806759  0.38893499  0.54146349    -0.11490
C948        C  0.64253963  0.41164915  0.50751200     0.05520
C949        C  0.61858893  0.40713495  0.47540624    -0.06780
C950        C  0.59155957  0.37995395  0.47723716    -0.07520
C951        C  0.58781309  0.35684946  0.50990118    -0.02070
C952        C  0.61143517  0.36211146  0.54339781     0.04750
N953        N  0.60913314  0.34054533  0.57988929     0.67250
H954        H  0.65555247  0.39182066  0.56744076     0.16150
H955        H  0.57385762  0.37647496  0.45130309     0.15860
N956        N  0.62136850  0.42915736  0.43959339     0.74960
O957        O  0.62872160  0.33263111  0.58137415    -0.38490
O958        O  0.59060874  0.33328107  0.61560634    -0.38440
O959        O  0.63977171  0.43624418  0.40372606    -0.39140
O960        O  0.60158182  0.43678114  0.43762191    -0.39210
C961        C  0.88958467  0.13900077  0.52934013    -0.11490
C962        C  0.91419658  0.14027862  0.50443443     0.05520
C963        C  0.91096640  0.11435192  0.47991202    -0.06780
C964        C  0.88285692  0.08829030  0.47994708    -0.07520
C965        C  0.85823623  0.08758356  0.50431980    -0.02070
C966        C  0.86189281  0.11365466  0.52860197     0.04750
N967        N  0.83736157  0.11572828  0.54981949     0.67250
H968        H  0.89117149  0.15861708  0.54741854     0.16150
H969        H  0.88035798  0.06833237  0.46176406     0.15860
N970        N  0.93578279  0.11365292  0.45653248     0.74960
O971        O  0.83939233  0.12603736  0.59398295    -0.38490
O972        O  0.81630322  0.11260555  0.52146900    -0.38440
O973        O  0.96068562  0.12524283  0.47866835    -0.39140
O974        O  0.93179869  0.09769939  0.41777867    -0.39210
C975        C  0.97860059  0.22630099  0.77856745    -0.11490
C976        C  0.50125463  0.25053962  0.80474767     0.05520
C977        C  0.52374960  0.27430359  0.77687062    -0.06780
C978        C  0.52312669  0.27323902  0.72386265    -0.07520
C979        C  0.50041444  0.24901717  0.69783261    -0.02070
C980        C  0.97790397  0.22532500  0.72564193     0.04750
N981        N  0.95491572  0.19951845  0.70093697     0.67250
H982        H  0.96133651  0.20779670  0.79934107     0.16150
H983        H  0.54035640  0.29166650  0.70288728     0.15860
N984        N  0.54660398  0.30023997  0.80146905     0.74960
O985        O  0.95353932  0.17464095  0.70729855    -0.38490
O986        O  0.93284994  0.20039376  0.68223009    -0.38440
O987        O  0.56866373  0.29951987  0.82056410    -0.39140
O988        O  0.54795184  0.32506064  0.79449097    -0.39210
C989        C  0.98642653  0.26573093  0.22365393    -0.11490
C990        C  0.50060263  0.25240411  0.19743305     0.05520
C991        C  0.51464819  0.23938659  0.22546320    -0.06780
C992        C  0.51300930  0.23892661  0.27852815    -0.07520
C993        C  0.49859205  0.25196087  0.30476146    -0.02070
C994        C  0.98492518  0.26541196  0.27685624     0.04750
N995        N  0.96811462  0.27733257  0.30137206     0.67250
H996        H  0.97528879  0.27538679  0.20246151     0.16150
H997        H  0.52412089  0.22922281  0.29968168     0.15860
N998        N  0.53188638  0.22790647  0.20111504     0.74960
O999        O  0.96778727  0.29974557  0.28305874    -0.38490
O1000       O  0.95014694  0.26302516  0.33643518    -0.38440
O1001       O  0.55045145  0.24287962  0.16720051    -0.39140
O1002       O  0.53203763  0.20527251  0.21878921    -0.39210
C1003       C  0.64151785  0.38511620  0.01209505    -0.11490
C1004       C  0.64148634  0.41212813  0.00686735     0.05520
C1005       C  0.61382920  0.41168062  0.00348452    -0.06780
C1006       C  0.58715918  0.38415291  0.00536806    -0.07520
C1007       C  0.58765618  0.35726096  0.00963050    -0.02070
C1008       C  0.61525413  0.35794628  0.01436687     0.04750
N1009       N  0.61716106  0.33140322  0.02302637     0.67250
H1010       H  0.66246804  0.38512573  0.01532076     0.16150
H1011       H  0.56601380  0.38368537  0.00175457     0.15860
N1012       N  0.61216409  0.43853991  0.99944020     0.74960
O1013       O  0.63952331  0.32990236  0.00748460    -0.38490
O1014       O  0.59923789  0.31162548  0.05281441    -0.38440
O1015       O  0.62387063  0.45557248  0.96214088    -0.39140
O1016       O  0.59408551  0.44207014  0.02689315    -0.39210
C1017       C  0.91125708  0.11615013  0.00200462    -0.11490
C1018       C  0.91048002  0.14288409  0.00710878     0.05520
C1019       C  0.88298286  0.14182850  0.01533455    -0.06780
C1020       C  0.85703794  0.11447443  0.01831996    -0.07520
C1021       C  0.85732448  0.08761405  0.01185633    -0.02070
C1022       C  0.88486100  0.08830945  0.00389324     0.04750
N1023       N  0.88664550  0.06141555  0.99918872     0.67250
H1024       H  0.93246421  0.11702589  0.99626563     0.16150
H1025       H  0.83615657  0.11434273  0.02409411     0.15860
N1026       N  0.88098953  0.16839593  0.02166936     0.74960
O1027       O  0.90768010  0.06145289  0.97466438    -0.38490
O1028       O  0.86932364  0.03851074  0.02400600    -0.38440
O1029       O  0.88193989  0.18333198  0.98325530    -0.39140
O1030       O  0.87165086  0.17299856  0.06306389    -0.39210
C1031       C  0.75813510  0.39538592  0.45763778    -0.11490
C1032       C  0.77906919  0.41691202  0.48991230     0.05520
C1033       C  0.79975890  0.41114856  0.51574736    -0.06780
C1034       C  0.79664561  0.38238623  0.51162268    -0.07520
C1035       C  0.77420457  0.35992430  0.48150330    -0.02070
C1036       C  0.75575508  0.36739964  0.45205708     0.04750
N1037       N  0.73407845  0.34706097  0.41679249     0.67250
H1038       H  0.74291321  0.40031084  0.43691085     0.16150
H1039       H  0.81144723  0.37724399  0.53299328     0.15860
N1040       N  0.82359594  0.43360894  0.54606790     0.74960
O1041       O  0.70882099  0.34529847  0.41450619    -0.38490
O1042       O  0.74235916  0.33694415  0.38038511    -0.38440
O1043       O  0.82820557  0.45999137  0.54775014    -0.39140
O1044       O  0.84178624  0.42774463  0.56824676    -0.39210
C1045       C  0.73913413  0.13513597  0.54339701    -0.11490
C1046       C  0.72219463  0.13838570  0.50525814     0.05520
C1047       C  0.70398598  0.11382997  0.47361254    -0.06780
C1048       C  0.70564389  0.08739806  0.47873434    -0.07520
C1049       C  0.72421032  0.08473540  0.51506624    -0.02070
C1050       C  0.73992105  0.10863310  0.54959823     0.04750
N1051       N  0.75684842  0.10665740  0.59115875     0.67250
H1052       H  0.75230639  0.15373815  0.56846901     0.16150
H1053       H  0.69302950  0.06902136  0.45306264     0.15860
N1054       N  0.68392428  0.11504216  0.43659079     0.74960
O1055       O  0.78182252  0.12861563  0.60219593    -0.38490
O1056       O  0.74461220  0.08551831  0.62228272    -0.38440
O1057       O  0.68178808  0.13820056  0.43084886    -0.39140
O1058       O  0.66657842  0.09206880  0.41160058    -0.39210
C1059       C  0.60661663  0.24604152  0.46850897    -0.11490
C1060       C  0.58216071  0.22078390  0.48783243     0.05520
C1061       C  0.58568696  0.19705839  0.50697609    -0.06780
C1062       C  0.61453014  0.20017525  0.50712615    -0.07520
C1063       C  0.63928994  0.22621346  0.48909971    -0.02070
C1064       C  0.63498566  0.24941133  0.46995921     0.04750
N1065       N  0.65934758  0.27758243  0.45525370     0.67250
H1066       H  0.60394961  0.26449277  0.45523715     0.16150
H1067       H  0.61777545  0.18231633  0.52139677     0.15860
N1068       N  0.56093712  0.17036150  0.52696037     0.74960
O1069       O  0.65773539  0.28951403  0.41459344    -0.38490
O1070       O  0.67954950  0.29285082  0.48689593    -0.38440
O1071       O  0.53445321  0.16397157  0.51770457    -0.39140
O1072       O  0.56543563  0.15198980  0.55157789    -0.39210
C1073       C  0.91121990  0.29536742  0.49224592    -0.11490
C1074       C  0.91127082  0.26822265  0.49641395     0.05520
C1075       C  0.88378195  0.24140763  0.49889575    -0.06780
C1076       C  0.85730701  0.24241360  0.49864085    -0.07520
C1077       C  0.85694547  0.26926776  0.49440453    -0.02070
C1078       C  0.88426353  0.29630388  0.49088641     0.04750
N1079       N  0.88519393  0.32444677  0.48422691     0.67250
H1080       H  0.93224836  0.31584379  0.48986346     0.16150
H1081       H  0.83648932  0.22164309  0.50078730     0.15860
N1082       N  0.88213988  0.21275665  0.49975435     0.74960
O1083       O  0.90770064  0.34820829  0.49853572    -0.38490
O1084       O  0.86527058  0.32612377  0.45905185    -0.38440
O1085       O  0.86315160  0.19232409  0.52736669    -0.39140
O1086       O  0.89633805  0.20646467  0.46757566    -0.39210
C1087       C  0.74633459  0.22737413  0.71158752    -0.11490
C1088       C  0.74973338  0.25285092  0.68671933     0.05520
C1089       C  0.75331780  0.27753827  0.71569925    -0.06780
C1090       C  0.75359683  0.27597262  0.76890022    -0.07520
C1091       C  0.75063157  0.25060763  0.79375939    -0.02070
C1092       C  0.74726349  0.22615143  0.76452824     0.04750
N1093       N  0.74376121  0.19954821  0.78772117     0.67250
H1094       H  0.74359372  0.20841368  0.68954340     0.16150
H1095       H  0.75585860  0.29464418  0.79122831     0.15860
N1096       N  0.75549065  0.30370498  0.69224989     0.74960
O1097       O  0.72138469  0.17487034  0.77677613    -0.38490
O1098       O  0.76564612  0.19982274  0.80958983    -0.38440
O1099       O  0.74076037  0.30157161  0.65275485    -0.39140
O1100       O  0.76937952  0.32863118  0.71422326    -0.39210
C1101       C  0.72361119  0.23951347  0.26804826    -0.11490
C1102       C  0.75028321  0.24749492  0.29382747     0.05520
C1103       C  0.77696595  0.25808109  0.26598908    -0.06780
C1104       C  0.77618674  0.26011181  0.21307528    -0.07520
C1105       C  0.74936213  0.25130176  0.18718671    -0.02070
C1106       C  0.72273977  0.24135018  0.21508948     0.04750
N1107       N  0.69505352  0.23434861  0.19079062     0.67250
H1108       H  0.70334010  0.23231633  0.28958041     0.16150
H1109       H  0.79663957  0.26787673  0.19182699     0.15860
N1110       N  0.80512368  0.26804783  0.29058368     0.74960
O1111       O  0.67069425  0.21526146  0.20994981    -0.38490
O1112       O  0.69459748  0.24986493  0.15427487    -0.38440
O1113       O  0.80920878  0.25050831  0.31833738    -0.39140
O1114       O  0.82731412  0.29225813  0.27732574    -0.39210
C1115       C  0.76155677  0.39741670  0.95313503    -0.11490
C1116       C  0.77829366  0.41731264  0.99158082     0.05520
C1117       C  0.79560331  0.41027575  0.02452819    -0.06780
C1118       C  0.79320713  0.38187737  0.02042074    -0.07520
C1119       C  0.77465643  0.36093194  0.98400307    -0.02070
C1120       C  0.75996839  0.36969930  0.94811869     0.04750
N1121       N  0.74316503  0.35088594  0.90658045     0.67250
H1122       H  0.74894015  0.40328319  0.92726077     0.16150
H1123       H  0.80518707  0.37567842  0.04698609     0.15860
N1124       N  0.81534756  0.43113234  0.06206152     0.74960
O1125       O  0.71816046  0.34816620  0.89533004    -0.38490
O1126       O  0.75546497  0.34148221  0.87586980    -0.38440
O1127       O  0.81912698  0.45718089  0.06525619    -0.39140
O1128       O  0.83103778  0.42433807  0.08980802    -0.39210
C1129       C  0.75512998  0.11220656  0.99160334    -0.11490
C1130       C  0.72790065  0.08648266  0.00024385     0.05520
C1131       C  0.70165752  0.08861459  0.00537870    -0.06780
C1132       C  0.70387189  0.11699611  0.00244450    -0.07520
C1133       C  0.73143035  0.14274087  0.99442881    -0.02070
C1134       C  0.75718411  0.14002600  0.98880724     0.04750
N1135       N  0.78599103  0.16553532  0.98283848     0.67250
H1136       H  0.77532615  0.11075698  0.98779715     0.16150
H1137       H  0.68411577  0.11910267  0.00694575     0.15860
N1138       N  0.67314571  0.06289388  0.01509906     0.74960
O1139       O  0.79944109  0.18133253  0.02085935    -0.38490
O1140       O  0.79939866  0.17017212  0.94103962    -0.38440
O1141       O  0.67125429  0.04081461  0.03876501    -0.39140
O1142       O  0.64950528  0.06317641  0.00378909    -0.39210
C1143       C  0.61495341  0.20047102  0.00971014    -0.11490
C1144       C  0.64124147  0.22765287  0.00216796     0.05520
C1145       C  0.63966914  0.25406234  0.99892213    -0.06780
C1146       C  0.61209715  0.25275146  0.00023808    -0.07520
C1147       C  0.58548702  0.22586332  0.00638340    -0.02070
C1148       C  0.58687795  0.19920581  0.01215936     0.04750
N1149       N  0.56050290  0.17078098  0.01768229     0.67250
H1150       H  0.61618698  0.18016574  0.01279777     0.16150
H1151       H  0.61157838  0.27319773  0.99684312     0.15860
N1152       N  0.66602923  0.28267249  0.99478026     0.74960
O1153       O  0.55889634  0.14814916  0.99615518    -0.38490
O1154       O  0.54140866  0.16708881  0.05087707    -0.38440
O1155       O  0.66773846  0.30056125  0.96078316    -0.39140
O1156       O  0.68591720  0.29148102  0.02862650    -0.39210
C1157       C  0.90683709  0.28771832  0.03796306    -0.11490
C1158       C  0.91716599  0.28081154  0.99347499     0.05520
C1159       C  0.90104221  0.27634108  0.94788437    -0.06780
C1160       C  0.87364242  0.27577204  0.94910769    -0.07520
C1161       C  0.86210236  0.28047548  0.99422436    -0.02070
C1162       C  0.87969639  0.28799812  0.03877867     0.04750
N1163       N  0.86974237  0.29418870  0.08568375     0.67250
H1164       H  0.91923136  0.29156649  0.07292262     0.16150
H1165       H  0.86093234  0.27115793  0.91433873     0.15860
N1166       N  0.91198745  0.27209645  0.90017961     0.74960
O1167       O  0.87082206  0.28144840  0.12573390    -0.38490
O1168       O  0.86593364  0.31650229  0.08906193    -0.38440
O1169       O  0.89406974  0.25523399  0.86677991    -0.39140
O1170       O  0.93915211  0.28775547  0.88903532    -0.39210
Zn1171     Zn  0.78058377  0.78270136  0.03405721     1.49720
Zn1172     Zn  0.76922791  0.73462094  0.94829003     1.49360
Zn1173     Zn  0.71917594  0.71847811  0.03380898     1.49110
Zn1174     Zn  0.73124718  0.76639484  0.94777565     1.49480
O1175       O  0.75004208  0.75050782  0.99171015    -1.83350
O1176       O  0.82135390  0.78645918  0.02442177    -0.73980
O1177       O  0.75326982  0.69174720  0.96313865    -0.73800
O1178       O  0.72946074  0.72896468  0.10752898    -0.73310
O1179       O  0.81294921  0.75427702  0.96236005    -0.73990
O1180       O  0.77028106  0.77348064  0.10804757    -0.73590
O1181       O  0.71768062  0.67877081  0.02085292    -0.74180
O1182       O  0.68829888  0.74840931  0.96462282    -0.73570
O1183       O  0.76368029  0.73899925  0.87385841    -0.74320
O1184       O  0.67813428  0.71470201  0.02462848    -0.73710
O1185       O  0.73621672  0.76113348  0.87332270    -0.74180
O1186       O  0.74848930  0.80991185  0.95961719    -0.74090
O1187       O  0.78364430  0.82277031  0.01769096    -0.73880
C1188       C  0.83059059  0.77367578  0.99381302     0.77910
C1189       C  0.73380535  0.67247680  0.99232285     0.78400
C1190       C  0.74966116  0.75132768  0.13124057     0.77360
C1191       C  0.67034500  0.72961433  0.99622368     0.77740
C1192       C  0.75002998  0.75001307  0.84987332     0.78870
C1193       C  0.76893782  0.82967575  0.98692825     0.77920
Zn1194     Zn  0.73132754  0.76521766  0.44583539     1.49720
Zn1195     Zn  0.76473565  0.72888831  0.44917192     1.49360
Zn1196     Zn  0.78063697  0.78162768  0.53132403     1.49110
Zn1197     Zn  0.71725755  0.71902451  0.53523909     1.49480
O1198       O  0.74870707  0.74872314  0.49126110    -1.83350
O1199       O  0.73731875  0.75989256  0.37245994    -0.73980
O1200       O  0.80775274  0.74609769  0.46462956    -0.73800
O1201       O  0.78440328  0.82213413  0.51394899    -0.73310
O1202       O  0.76101657  0.73390162  0.37413243    -0.73990
O1203       O  0.74809127  0.80863192  0.45814717    -0.73590
O1204       O  0.82071315  0.78323568  0.51970501    -0.74180
O1205       O  0.72837250  0.73069403  0.60806700    -0.73570
O1206       O  0.74588887  0.68521673  0.46538743    -0.74320
O1207       O  0.77074615  0.77392856  0.60655113    -0.73710
O1208       O  0.71374462  0.67831414  0.52710648    -0.74180
O1209       O  0.67685454  0.71629675  0.52272065    -0.74090
O1210       O  0.68817591  0.74697555  0.45764217    -0.73880
C1211       C  0.74972977  0.74715100  0.34971325     0.77910
C1212       C  0.82715743  0.76676417  0.49225662     0.78400
C1213       C  0.76891027  0.82871158  0.48437450     0.77360
C1214       C  0.74959610  0.75269179  0.63075116     0.77740
C1215       C  0.72680203  0.66863631  0.49795489     0.78870
C1216       C  0.66950424  0.72950802  0.48969526     0.77920
Zn1217     Zn  0.49932523  0.78254310  0.04319685     1.49720
Zn1218     Zn  0.96479582  0.73345709  0.95715384     1.49360
Zn1219     Zn  0.53371822  0.76661184  0.95930266     1.49110
Zn1220     Zn  0.49833693  0.71806540  0.04419114     1.49480
O1221       O  0.49893978  0.75010796  0.00198912    -1.83350
O1222       O  0.96299462  0.78733438  0.02841934    -0.73980
O1223       O  0.97562187  0.73712869  0.88332171    -0.73800
O1224       O  0.56061971  0.80914076  0.97552635    -0.73310
O1225       O  0.94075346  0.75359705  0.96778386    -0.73990
O1226       O  0.53745561  0.82230770  0.03241607    -0.73590
O1227       O  0.52473427  0.76334778  0.88538326    -0.74180
O1228       O  0.53551269  0.71367998  0.03325673    -0.73570
O1229       O  0.93778714  0.69090815  0.97304677    -0.74320
O1230       O  0.55774973  0.74704154  0.97281074    -0.73710
O1231       O  0.96010277  0.67832966  0.03241584    -0.74180
O1232       O  0.49899693  0.72952973  0.11785863    -0.74090
O1233       O  0.49894272  0.77267946  0.11738282    -0.73880
C1234       C  0.94190519  0.77396185  0.99651480     0.77910
C1235       C  0.50054105  0.75047574  0.86069451     0.78400
C1236       C  0.56009320  0.82834736  0.00509198     0.77360
C1237       C  0.55733299  0.72779815  0.00323013     0.77740
C1238       C  0.93791318  0.67198753  0.00352304     0.78870
C1239       C  0.49948933  0.75147881  0.14119912     0.77920
Zn1240     Zn  0.50070733  0.78224731  0.46145281     1.49720
Zn1241     Zn  0.96665363  0.73227852  0.54497450     1.49360
Zn1242     Zn  0.49771496  0.71699617  0.45525963     1.49110
Zn1243     Zn  0.53428143  0.76299160  0.54375315     1.49480
O1244       O  0.50003277  0.74889778  0.50007864    -1.83350
O1245       O  0.96204935  0.78407848  0.47315992    -0.73980
O1246       O  0.94299679  0.68919977  0.53441240    -0.73800
O1247       O  0.49721004  0.72875144  0.38283489    -0.73310
O1248       O  0.93963336  0.74793965  0.52952491    -0.73990
O1249       O  0.50113975  0.77371593  0.38610635    -0.73590
O1250       O  0.96035222  0.67711399  0.46706316    -0.74180
O1251       O  0.55744228  0.74266880  0.52790763    -0.73570
O1252       O  0.97636920  0.73838848  0.61815288    -0.74320
O1253       O  0.53400774  0.71178709  0.46377970    -0.73710
O1254       O  0.52533166  0.75915920  0.61855366    -0.74180
O1255       O  0.56087577  0.80560414  0.53014211    -0.74090
O1256       O  0.53851379  0.82215406  0.47840434    -0.73880
C1257       C  0.93947444  0.76732468  0.50029973     0.77910
C1258       C  0.94112283  0.67007460  0.50211631     0.78400
C1259       C  0.49887592  0.75150377  0.36093129     0.77360
C1260       C  0.55567671  0.72394614  0.49478773     0.77740
C1261       C  0.50074884  0.74881710  0.64200003     0.78870
C1262       C  0.56078482  0.82678531  0.50602628     0.77920
Zn1263     Zn  0.76514032  0.53309698  0.05294685     1.49720
Zn1264     Zn  0.71689041  0.49875194  0.96609438     1.49360
Zn1265     Zn  0.78196422  0.50226283  0.96378594     1.49110
Zn1266     Zn  0.73434338  0.96426930  0.04893015     1.49480
O1267       O  0.74952382  0.49950829  0.00710577    -1.83350
O1268       O  0.74849803  0.55929443  0.03604166    -0.73980
O1269       O  0.72574964  0.49732250  0.89168803    -0.73800
O1270       O  0.82144963  0.54002247  0.97821751    -0.73310
O1271       O  0.71408831  0.53655194  0.97646220    -0.73990
O1272       O  0.80870845  0.55892516  0.04315068    -0.73590
O1273       O  0.77119775  0.50246840  0.89034625    -0.74180
O1274       O  0.75363080  0.93986888  0.03137687    -0.73570
O1275       O  0.67696833  0.96181041  0.98038395    -0.74320
O1276       O  0.78662461  0.96563637  0.97147665    -0.73710
O1277       O  0.69117190  0.93858469  0.03491759    -0.74180
O1278       O  0.73883797  0.97310024  0.12377310    -0.74090
O1279       O  0.75719824  0.52189739  0.12635502    -0.73880
C1280       C  0.72934908  0.55881847  0.00529152     0.77910
C1281       C  0.74802872  0.49927105  0.86757041     0.78400
C1282       C  0.82795815  0.56022865  0.01165016     0.77360
C1283       C  0.77330177  0.94273249  0.99943250     0.77740
C1284       C  0.67111771  0.93939908  0.00799852     0.78870
C1285       C  0.74748129  0.49706361  0.14870737     0.77920
Zn1286     Zn  0.71784222  0.49957293  0.46766014     1.49720
Zn1287     Zn  0.76760334  0.53310932  0.55168181     1.49360
Zn1288     Zn  0.73603792  0.96433156  0.54894956     1.49110
Zn1289     Zn  0.78241035  0.50155775  0.46179253     1.49480
O1290       O  0.75073957  0.49941142  0.50662830    -1.83350
O1291       O  0.71376659  0.53644845  0.48400965    -0.73980
O1292       O  0.76239451  0.52257514  0.62509145    -0.73800
O1293       O  0.69295144  0.93811905  0.53390914    -0.73310
O1294       O  0.75028877  0.55942088  0.53931032    -0.73990
O1295       O  0.67836167  0.96146389  0.48047822    -0.73590
O1296       O  0.74082925  0.97345750  0.62433619    -0.74180
O1297       O  0.78804930  0.96551027  0.47013314    -0.73570
O1298       O  0.81040413  0.55803576  0.53865145    -0.74320
O1299       O  0.75579754  0.94031967  0.53130517    -0.73710
O1300       O  0.82184993  0.53987020  0.47152314    -0.74180
O1301       O  0.76999735  0.50081270  0.38961137    -0.74090
O1302       O  0.72667009  0.50047898  0.39244738    -0.73880
C1303       C  0.72929945  0.55860169  0.51307925     0.77910
C1304       C  0.75183010  0.49802404  0.64849413     0.78400
C1305       C  0.67270639  0.93871197  0.50713194     0.77360
C1306       C  0.77517439  0.94292459  0.49890457     0.77740
C1307       C  0.82884695  0.56010246  0.50497390     0.78870
C1308       C  0.74797622  0.50067118  0.36756940     0.77920
C1309       C  0.77056363  0.52266270  0.78613236    -0.11490
C1310       C  0.74761037  0.49855668  0.81164900     0.05520
C1311       C  0.72674658  0.97355800  0.78347833    -0.06780
C1312       C  0.72928220  0.97370850  0.73044739    -0.07520
C1313       C  0.75187480  0.49814172  0.70474015    -0.01890
C1314       C  0.77314866  0.52275398  0.73323481     0.04750
N1315       N  0.79821481  0.54734755  0.70961758     0.67250
H1316       H  0.78710567  0.54136650  0.80781388     0.16150
H1317       H  0.71294550  0.95477277  0.70898557     0.15860
N1318       N  0.70374498  0.94740367  0.80762938     0.74960
O1319       O  0.80742774  0.57347391  0.72586757    -0.38490
O1320       O  0.81386390  0.54264419  0.67807467    -0.38440
O1321       O  0.68772731  0.94957295  0.84164176    -0.39140
O1322       O  0.69652252  0.92199084  0.78985183    -0.39210
C1323       C  0.75604155  0.98162553  0.28648435    -0.11490
C1324       C  0.74717971  0.50003848  0.31160169     0.05520
C1325       C  0.73773859  0.51699329  0.28281897    -0.06780
C1326       C  0.73733661  0.51488194  0.22971041    -0.07520
C1327       C  0.74609278  0.49635293  0.20466565    -0.02070
C1328       C  0.75522471  0.97926719  0.23358615     0.04750
N1329       N  0.76491837  0.96039422  0.21011310     0.67250
H1330       H  0.76321073  0.96848942  0.30826425     0.16150
H1331       H  0.73072360  0.52834334  0.20760487     0.15860
N1332       N  0.72998229  0.53746752  0.30633327     0.74960
O1333       O  0.79002270  0.96341628  0.22146101    -0.38490
O1334       O  0.74631489  0.93709421  0.18728599    -0.38440
O1335       O  0.74534579  0.55383760  0.34256446    -0.39140
O1336       O  0.71043137  0.54220965  0.28650639    -0.39210
C1337       C  0.63807519  0.88893087  0.54144877    -0.11490
C1338       C  0.64254851  0.91164718  0.50750129     0.05520
C1339       C  0.61859825  0.90713505  0.47539593    -0.06780
C1340       C  0.59156774  0.87995464  0.47722485    -0.07520
C1341       C  0.58781946  0.85684841  0.50988633    -0.02070
C1342       C  0.61144180  0.86210795  0.54338100     0.04750
N1343       N  0.60913912  0.84053985  0.57986875     0.67250
H1344       H  0.65555980  0.89181438  0.56742484     0.16150
H1345       H  0.57386606  0.87647765  0.45129169     0.15860
N1346       N  0.62137937  0.92915917  0.43958555     0.74960
O1347       O  0.62872498  0.83262197  0.58134593    -0.38490
O1348       O  0.59061817  0.83327807  0.61559083    -0.38440
O1349       O  0.63978343  0.93624702  0.40371935    -0.39140
O1350       O  0.60159359  0.93678421  0.43761503    -0.39210
C1351       C  0.88957677  0.63900136  0.52932586    -0.11490
C1352       C  0.91418775  0.64027806  0.50441846     0.05520
C1353       C  0.91095485  0.61435122  0.47989211    -0.06780
C1354       C  0.88284458  0.58829048  0.47992816    -0.07520
C1355       C  0.85822526  0.58758460  0.50430450    -0.02070
C1356       C  0.86188382  0.61365630  0.52858736     0.04750
N1357       N  0.83735366  0.61573145  0.54980623     0.67250
H1358       H  0.89116544  0.65861776  0.54740687     0.16150
H1359       H  0.88034412  0.56833241  0.46174329     0.15860
N1360       N  0.93576926  0.61365106  0.45650713     0.74960
O1361       O  0.83938622  0.62604256  0.59396853    -0.38490
O1362       O  0.81629411  0.61260740  0.52145758    -0.38440
O1363       O  0.96067188  0.62523536  0.47864302    -0.39140
O1364       O  0.93178290  0.59770101  0.41774767    -0.39210
C1365       C  0.97861872  0.72629626  0.77856428    -0.11490
C1366       C  0.50127507  0.75053568  0.80473951     0.05520
C1367       C  0.52376387  0.77430171  0.77685715    -0.06780
C1368       C  0.52313441  0.77323708  0.72384941    -0.07520
C1369       C  0.50042043  0.74901415  0.69782415    -0.02070
C1370       C  0.97791461  0.72532082  0.72563851     0.04750
N1371       N  0.95492286  0.69951453  0.70093836     0.67250
H1372       H  0.96135785  0.70779161  0.79934206     0.16150
H1373       H  0.54036030  0.79166569  0.70287039     0.15860
N1374       N  0.54661785  0.80024060  0.80145034     0.74960
O1375       O  0.95354135  0.67463521  0.70730658    -0.38490
O1376       O  0.93285861  0.70039285  0.68223162    -0.38440
O1377       O  0.56868246  0.79952575  0.82053567    -0.39140
O1378       O  0.54795889  0.82505866  0.79447778    -0.39210
C1379       C  0.98643733  0.76572320  0.22364012    -0.11490
C1380       C  0.50061797  0.75239908  0.19742676     0.05520
C1381       C  0.51465779  0.73937775  0.22546127    -0.06780
C1382       C  0.51301457  0.73891787  0.27852555    -0.07520
C1383       C  0.49859648  0.75195362  0.30475259    -0.02070
C1384       C  0.98493162  0.76540438  0.27684133     0.04750
N1385       N  0.96811955  0.77732558  0.30134997     0.67250
H1386       H  0.97530158  0.77537944  0.20244282     0.16150
H1387       H  0.52412406  0.72921364  0.29968376     0.15860
N1388       N  0.53189685  0.72789655  0.20111986     0.74960
O1389       O  0.96779210  0.79973725  0.28303058    -0.38490
O1390       O  0.95015080  0.76301970  0.33641269    -0.38440
O1391       O  0.55046879  0.74287177  0.16721541    -0.39140
O1392       O  0.53204212  0.70525949  0.21879337    -0.39210
C1393       C  0.64151278  0.88514555  0.01205935    -0.11490
C1394       C  0.64147675  0.91215718  0.00685517     0.05520
C1395       C  0.61381864  0.91171031  0.00349116    -0.06780
C1396       C  0.58715049  0.88418061  0.00537092    -0.07520
C1397       C  0.58765386  0.85729021  0.00961454    -0.02070
C1398       C  0.61525309  0.85797503  0.01432681     0.04750
N1399       N  0.61715872  0.83142878  0.02298169     0.67250
H1400       H  0.66246352  0.88515514  0.01527049     0.16150
H1401       H  0.56600299  0.88371031  0.00177174     0.15860
N1402       N  0.61215117  0.93857028  0.99947423     0.74960
O1403       O  0.63950241  0.82990534  0.00740393    -0.38490
O1404       O  0.59923935  0.81165813  0.05278174    -0.38440
O1405       O  0.62388044  0.95562796  0.96221190    -0.39140
O1406       O  0.59405738  0.94208384  0.02691411    -0.39210
C1407       C  0.91128384  0.61614650  0.00199265    -0.11490
C1408       C  0.91051042  0.64288224  0.00709844     0.05520
C1409       C  0.88301489  0.64182911  0.01532832    -0.06780
C1410       C  0.85706730  0.61447655  0.01831058    -0.07520
C1411       C  0.85734876  0.58761382  0.01184206    -0.02070
C1412       C  0.88488458  0.58830678  0.00387698     0.04750
N1413       N  0.88666540  0.56141127  0.99916462     0.67250
H1414       H  0.93248967  0.61701978  0.99625168     0.16150
H1415       H  0.83618763  0.61434798  0.02408669     0.15860
N1416       N  0.88102533  0.66839844  0.02166498     0.74960
O1417       O  0.90770085  0.56144858  0.97464310    -0.38490
O1418       O  0.86933838  0.53850380  0.02397114    -0.38440
O1419       O  0.88195686  0.68332479  0.98324879    -0.39140
O1420       O  0.87171003  0.67301337  0.06307411    -0.39210
C1421       C  0.75814556  0.89538692  0.45762966    -0.11490
C1422       C  0.77908118  0.91691253  0.48990284     0.05520
C1423       C  0.79977081  0.91114812  0.51573598    -0.06780
C1424       C  0.79665528  0.88238497  0.51161177    -0.07520
C1425       C  0.77421191  0.85992331  0.48149554    -0.02070
C1426       C  0.75576318  0.86739975  0.45204994     0.04750
N1427       N  0.73408446  0.84706108  0.41678807     0.67250
H1428       H  0.74292390  0.90031270  0.43690393     0.16150
H1429       H  0.81145639  0.87724168  0.53298163     0.15860
N1430       N  0.82360967  0.93360784  0.54605464     0.74960
O1431       O  0.70882740  0.84529967  0.41450555    -0.38490
O1432       O  0.74236280  0.83694298  0.38037930    -0.38440
O1433       O  0.82821111  0.95998705  0.54775970    -0.39140
O1434       O  0.84180824  0.92774648  0.56821111    -0.39210
C1435       C  0.73912408  0.63513441  0.54339689    -0.11490
C1436       C  0.72218388  0.63838432  0.50525978     0.05520
C1437       C  0.70397170  0.61382811  0.47361799    -0.06780
C1438       C  0.70562845  0.58739566  0.47873886    -0.07520
C1439       C  0.72419680  0.58473334  0.51506701    -0.02070
C1440       C  0.73990928  0.60863090  0.54959830     0.04750
N1441       N  0.75683672  0.60665433  0.59115797     0.67250
H1442       H  0.75229824  0.65373692  0.56846713     0.16150
H1443       H  0.69301224  0.56901869  0.45306860     0.15860
N1444       N  0.68390766  0.61504027  0.43660129     0.74960
O1445       O  0.78181109  0.62861207  0.60219546    -0.38490
O1446       O  0.74460068  0.58551438  0.62228040    -0.38440
O1447       O  0.68178124  0.63820326  0.43084584    -0.39140
O1448       O  0.66655091  0.59206349  0.41162887    -0.39210
C1449       C  0.60661597  0.74604206  0.46850420    -0.11490
C1450       C  0.58216014  0.72078312  0.48782492     0.05520
C1451       C  0.58568733  0.69705817  0.50696828    -0.06780
C1452       C  0.61453112  0.70017665  0.50712003    -0.07520
C1453       C  0.63929064  0.72621602  0.48909620    -0.02070
C1454       C  0.63498573  0.74941365  0.46995696     0.04750
N1455       N  0.65934750  0.77758607  0.45525601     0.67250
H1456       H  0.60394813  0.76449301  0.45523338     0.16150
H1457       H  0.61777714  0.68231802  0.52138994     0.15860
N1458       N  0.56093795  0.67036046  0.52695132     0.74960
O1459       O  0.65773371  0.78952225  0.41460235    -0.38490
O1460       O  0.67955085  0.79285105  0.48689825    -0.38440
O1461       O  0.53445381  0.66396902  0.51769349    -0.39140
O1462       O  0.56543722  0.65198973  0.55157032    -0.39210
C1463       C  0.91122101  0.79536808  0.49224073    -0.11490
C1464       C  0.91127334  0.76822392  0.49640618     0.05520
C1465       C  0.88378514  0.74140808  0.49888687    -0.06780
C1466       C  0.85730947  0.74241255  0.49863373    -0.07520
C1467       C  0.85694643  0.76926603  0.49440049    -0.02070
C1468       C  0.88426380  0.79630301  0.49088318     0.04750
N1469       N  0.88519261  0.82444532  0.48422663     0.67250
H1470       H  0.93224892  0.81584510  0.48985918     0.16150
H1471       H  0.83649240  0.72164139  0.50077970     0.15860
N1472       N  0.88214449  0.71275772  0.49974359     0.74960
O1473       O  0.90769776  0.84820686  0.49853990    -0.38490
O1474       O  0.86526990  0.82612212  0.45904919    -0.38440
O1475       O  0.86315599  0.69232390  0.52735369    -0.39140
O1476       O  0.89634422  0.70646757  0.46756525    -0.39210
C1477       C  0.74634341  0.72737248  0.71158676    -0.11490
C1478       C  0.74974293  0.75284979  0.68671910     0.05520
C1479       C  0.75333578  0.77754001  0.71569931    -0.06780
C1480       C  0.75362471  0.77597784  0.76889965    -0.07520
C1481       C  0.75065949  0.75061301  0.79375892    -0.02070
C1482       C  0.74728058  0.72615243  0.76452743     0.04750
N1483       N  0.74377475  0.69954763  0.78771995     0.67250
H1484       H  0.74359563  0.70840966  0.68954205     0.16150
H1485       H  0.75589324  0.79465200  0.79122787     0.15860
N1486       N  0.75550626  0.80370605  0.69225120     0.74960
O1487       O  0.72139711  0.67487102  0.77677267    -0.38490
O1488       O  0.76565741  0.69981926  0.80959183    -0.38440
O1489       O  0.74076869  0.80157093  0.65276494    -0.39140
O1490       O  0.76939948  0.82863334  0.71421984    -0.39210
C1491       C  0.72363239  0.73952221  0.26803639    -0.11490
C1492       C  0.75030011  0.74750159  0.29382784     0.05520
C1493       C  0.77698748  0.75809024  0.26600208    -0.06780
C1494       C  0.77621728  0.76012555  0.21308783    -0.07520
C1495       C  0.74939677  0.75131646  0.18718659    -0.02070
C1496       C  0.72276976  0.74136298  0.21507732     0.04750
N1497       N  0.69508710  0.73436223  0.19076540     0.67250
H1498       H  0.70335773  0.73232309  0.28955892     0.16150
H1499       H  0.79667355  0.76789241  0.19184919     0.15860
N1500       N  0.80514090  0.76805446  0.29061054     0.74960
O1501       O  0.67072503  0.71527222  0.20991222    -0.38490
O1502       O  0.69463619  0.74988116  0.15424965    -0.38440
O1503       O  0.80922232  0.75051081  0.31835959    -0.39140
O1504       O  0.82733269  0.79226809  0.27736936    -0.39210
C1505       C  0.76156240  0.89741986  0.95316273    -0.11490
C1506       C  0.77828973  0.91731523  0.99161538     0.05520
C1507       C  0.79561133  0.91028932  0.02455512    -0.06780
C1508       C  0.79323411  0.88189927  0.02043408    -0.07520
C1509       C  0.77469288  0.86095314  0.98400896    -0.02070
C1510       C  0.75999520  0.86971282  0.94813048     0.04750
N1511       N  0.74320461  0.85090242  0.90658029     0.67250
H1512       H  0.74893997  0.90328010  0.92729055     0.16150
H1513       H  0.80522022  0.87570625  0.04699651     0.15860
N1514       N  0.81534938  0.93114733  0.06209344     0.74960
O1515       O  0.71819594  0.84817031  0.89532198    -0.38490
O1516       O  0.75551874  0.84151416  0.87586978    -0.38440
O1517       O  0.81906383  0.95716866  0.06537706    -0.39140
O1518       O  0.83109068  0.92438285  0.08976573    -0.39210
C1519       C  0.75514759  0.61220873  0.99162308    -0.11490
C1520       C  0.72791589  0.58648661  0.00026146     0.05520
C1521       C  0.70167539  0.58862403  0.00539085    -0.06780
C1522       C  0.70389437  0.61700774  0.00245108    -0.07520
C1523       C  0.73145513  0.64275054  0.99443713    -0.02070
C1524       C  0.75720627  0.64003026  0.98882196     0.04750
N1525       N  0.78601538  0.66553648  0.98285625     0.67250
H1526       H  0.77534231  0.61075620  0.98782045     0.16150
H1527       H  0.68413990  0.61911758  0.00694848     0.15860
N1528       N  0.67316176  0.56290677  0.01511396     0.74960
O1529       O  0.79947453  0.68131961  0.02088477    -0.38490
O1530       O  0.79941639  0.67018138  0.94104932    -0.38440
O1531       O  0.67126675  0.54083190  0.03880001    -0.39140
O1532       O  0.64952344  0.56319029  0.00379102    -0.39210
C1533       C  0.61473099  0.70049803  0.00974405    -0.11490
C1534       C  0.64093743  0.72774794  0.00224880     0.05520
C1535       C  0.63908771  0.75404265  0.99893359    -0.06780
C1536       C  0.61148085  0.75253433  0.99999784    -0.07520
C1537       C  0.58497691  0.72556961  0.00613088    -0.02070
C1538       C  0.58658620  0.69902982  0.01212344     0.04750
N1539       N  0.56036954  0.67054722  0.01788222     0.67250
H1540       H  0.61612322  0.68028249  0.01288627     0.16150
H1541       H  0.61081803  0.77307836  0.99648332     0.15860
N1542       N  0.66521521  0.78273090  0.99535404     0.74960
O1543       O  0.55879319  0.64797550  0.99614427    -0.38490
O1544       O  0.54128072  0.66685242  0.05108479    -0.38440
O1545       O  0.66737038  0.80043370  0.96064562    -0.39140
O1546       O  0.68543579  0.79106077  0.02845461    -0.39210
C1547       C  0.90686788  0.78772462  0.03795929    -0.11490
C1548       C  0.91719459  0.78081662  0.99347018     0.05520
C1549       C  0.90107316  0.77635094  0.94787883    -0.06780
C1550       C  0.87367660  0.77578798  0.94910198    -0.07520
C1551       C  0.86213792  0.78049154  0.99422004    -0.02070
C1552       C  0.87973006  0.78800906  0.03877556     0.04750
N1553       N  0.86977581  0.79419699  0.08568279     0.67250
H1554       H  0.91926096  0.79156924  0.07291937     0.16150
H1555       H  0.86096730  0.77117717  0.91433270     0.15860
N1556       N  0.91201696  0.77210418  0.90017429     0.74960
O1557       O  0.87085094  0.78145083  0.12572869    -0.38490
O1558       O  0.86597153  0.81651302  0.08906832    -0.38440
O1559       O  0.89409812  0.75524126  0.86677629    -0.39140
O1560       O  0.93918170  0.78776113  0.88902889    -0.39210
loop_ 
_geom_bond_atom_site_label_1 
_geom_bond_atom_site_label_2 
_geom_bond_distance 
_geom_bond_site_symmetry_2 
_ccdc_geom_bond_type 
Zn1           O5   1.977   1_554  S
Zn1           O6   2.032       .  S
Zn1          O10   2.020       .  S
Zn1          O17   2.042       .  S
Zn2           O5   1.937       .  S
Zn2           O7   1.986       .  S
Zn2           O9   2.002       .  S
Zn2          O13   2.015       .  S
Zn3           O5   1.983   1_554  S
Zn3           O8   2.017       .  S
Zn3          O11   2.038       .  S
Zn3          O14   2.034       .  S
Zn4           O5   1.934       .  S
Zn4          O12   1.981       .  S
Zn4          O15   2.016       .  S
Zn4          O16   1.991       .  S
O6           C18   1.272   1_554  A
O7           C19   1.271       .  A
O8           C20   1.275       .  A
O9           C18   1.273       .  A
O10          C20   1.275       .  A
O11          C19   1.276   1_554  A
O12          C21   1.272       .  A
O13          C22   1.271       .  A
O14          C21   1.273   1_554  A
O15          C22   1.272       .  A
O16          C23   1.270       .  A
O17          C23   1.277   1_554  A
C18         C381   1.487       .  S
C19         C353   1.479       .  S
C20         C325   1.477       .  S
C21         C364   1.477   1_556  S
C22         C311   1.482       .  S
C23         C339   1.493       .  S
Zn24         O28   1.929       .  S
Zn24         O29   2.000       .  S
Zn24         O33   1.991       .  S
Zn24         O40   1.971       .  S
Zn25         O28   1.946       .  S
Zn25         O30   1.986       .  S
Zn25         O32   2.020       .  S
Zn25         O36   2.016       .  S
Zn26         O28   1.990       .  S
Zn26         O31   2.055       .  S
Zn26         O34   2.051       .  S
Zn26         O37   2.042       .  S
Zn27         O28   1.975       .  S
Zn27         O35   2.010       .  S
Zn27         O38   2.028       .  S
Zn27         O39   2.046       .  S
O29          C41   1.270       .  A
O30          C42   1.272       .  A
O31          C43   1.277       .  A
O32          C41   1.271       .  A
O33          C43   1.269       .  A
O34          C42   1.277       .  A
O35          C44   1.274       .  A
O36          C45   1.273       .  A
O37          C44   1.277       .  A
O38          C45   1.274       .  A
O39          C46   1.275       .  A
O40          C46   1.269       .  A
C41         C322   1.476       .  S
C42         C297   1.479       .  S
C43         C255   1.498       .  S
C44         C308   1.477       .  S
C45         C266   1.472       .  S
C46         C283   1.483       .  S
Zn47         O51   1.985       .  S
Zn47         O56   2.051   1_655  S
Zn47         O63   2.023       .  S
Zn47        O832   2.045       .  S
Zn48        O831   1.937   1_556  S
Zn48         O53   2.011       .  S
Zn48         O55   1.990       .  S
Zn48         O59   1.986       .  S
Zn49         O51   1.931   1_456  S
Zn49         O54   1.982       .  S
Zn49         O57   1.993       .  S
Zn49         O60   1.985       .  S
Zn50         O51   1.985       .  S
Zn50         O58   2.070   1_655  S
Zn50         O62   2.028       .  S
Zn50        O841   2.057       .  S
O51        Zn828   1.937   1_554  S
O52        Zn827   2.045       .  S
O52          C64   1.276   1_554  A
O53         C845   1.272       .  A
O54          C66   1.270   1_556  A
O55          C64   1.271       .  A
O56          C66   1.275       .  A
O57          C65   1.268       .  A
O58          C67   1.275       .  A
O59          C68   1.270   1_556  A
O60          C67   1.271   1_556  A
O61        Zn830   2.057       .  S
O61          C68   1.277       .  A
O62          C69   1.277       .  A
O63          C69   1.276       .  A
C64         C378   1.483       .  S
C65         O833   1.272   1_455  A
C65         C196   1.478       .  S
C66         C227   1.477       .  S
C67         C367   1.488       .  S
C68         C238   1.477       .  S
C69         C210   1.485   1_655  S
Zn70         O74   1.989       .  S
Zn70         O79   2.038       .  S
Zn70         O86   2.073       .  S
Zn70        O855   2.066   1_455  S
Zn71        O854   1.914       .  S
Zn71         O76   1.960       .  S
Zn71         O78   1.967       .  S
Zn71         O82   1.981       .  S
Zn72         O74   1.979   1_655  S
Zn72         O77   2.012       .  S
Zn72         O83   2.031   1_655  S
Zn72        O860   2.040       .  S
Zn73         O74   1.927       .  S
Zn73         O81   1.982       .  S
Zn73         O84   2.016       .  S
Zn73         O85   1.973       .  S
O74        Zn851   1.914   1_455  S
O75        Zn850   2.066       .  S
O75          C87   1.278       .  A
O76          C88   1.269       .  A
O77          C89   1.275       .  A
O78          C87   1.269       .  A
O79          C89   1.277   1_455  A
O80        Zn852   2.040       .  S
O80          C88   1.273       .  A
O81          C90   1.270       .  A
O82         C871   1.266       .  A
O83          C90   1.274       .  A
O84          C91   1.271       .  A
O85          C92   1.269       .  A
O86          C92   1.280       .  A
C87         C294   1.482       .  S
C88         C182   1.484       .  S
C89         C213   1.483       .  S
C90         C280   1.465       .  S
C91         O862   1.266   1_455  A
C91         C199   1.474       .  S
C92         C171   1.496       .  S
Zn93         O97   1.932   1_545  S
Zn93         O98   1.976       .  S
Zn93        O102   1.990       .  S
Zn93        O109   2.008       .  S
Zn94         O97   1.986   1_556  S
Zn94         O99   2.026       .  S
Zn94        O101   2.042   1_565  S
Zn94        O495   2.043       .  S
Zn95         O97   1.974   1_546  S
Zn95        O100   2.047       .  S
Zn95        O103   2.018       .  S
Zn95        O496   2.029   1_545  S
Zn96        O487   1.938       .  S
Zn96        O104   2.003       .  S
Zn96        O107   1.989       .  S
Zn96        O108   2.014       .  S
O97        Zn486   1.938       .  S
O98         C110   1.270       .  A
O99         C111   1.274       .  A
O100        C112   1.276   1_556  A
O101        C110   1.275   1_556  A
O102        C112   1.272       .  A
O103        C111   1.274   1_545  A
O104        C113   1.271   1_554  A
O105       Zn484   2.043       .  S
O105        C114   1.274   1_556  A
O106       Zn485   2.029       .  S
O106        C113   1.274       .  A
O107        C114   1.273       .  A
O108        C505   1.271       .  A
O109        C115   1.271   1_545  A
C110        C350   1.472       .  S
C111        C140   1.476       .  S
C112        C241   1.481       .  S
C113        C336   1.469       .  S
C114        C224   1.486       .  S
C115        O498   1.271       .  A
C115        C157   1.479       .  S
Zn116       O120   1.988       .  S
Zn116       O121   2.058   1_565  S
Zn116       O132   2.032   1_565  S
Zn116       O515   2.051       .  S
Zn117       O120   1.922   1_545  S
Zn117       O122   1.997       .  S
Zn117       O124   1.985       .  S
Zn117       O128   1.966       .  S
Zn118       O510   1.941       .  S
Zn118       O123   1.994       .  S
Zn118       O126   2.030       .  S
Zn118       O129   2.006       .  S
Zn119       O120   1.976   1_545  S
Zn119       O130   2.041       .  S
Zn119       O131   2.004       .  S
Zn119       O517   2.031   1_545  S
O120       Zn508   1.941       .  S
O121        C133   1.278       .  A
O122        C134   1.269   1_545  A
O123        C135   1.274       .  A
O124        C133   1.269       .  A
O125       Zn506   2.051       .  S
O125        C135   1.276       .  A
O126        C524   1.274       .  A
O127       Zn509   2.031       .  S
O127        C136   1.274       .  A
O128        C137   1.268       .  A
O129        C136   1.272       .  A
O130        C137   1.274       .  A
O131        C138   1.273       .  A
O132        C138   1.276       .  A
C133        C269   1.496       .  S
C134        O516   1.274       .  A
C134        C143   1.485       .  S
C135        C168   1.497       .  S
C136        C252   1.470       .  S
C137        C185   1.483       .  S
C138        C154   1.478       .  S
C139        C140   1.401   1_545  A
C139        C144   1.402       .  A
C139        H146   1.084       .  S
C140        C531   1.416       .  A
C141        C142   1.406       .  A
C141        C530   1.416       .  A
C141        N148   1.439       .  S
C142        C533   1.405       .  A
C142        H147   1.084       .  S
C143        C144   1.418   1_565  A
C143        C532   1.405       .  A
C144        N145   1.438       .  S
N145        O149   1.263       .  A
N145        O150   1.263       .  A
N148        O151   1.261       .  A
N148        O152   1.263       .  A
C153        C158   1.400       .  A
C153        C544   1.404       .  A
C153        H160   1.084       .  S
C154        C155   1.415       .  A
C154        C543   1.404   1_545  A
C155        C156   1.405       .  A
C155        N162   1.439       .  S
C156        C157   1.405   1_545  A
C156        H161   1.084       .  S
C157        C548   1.412       .  A
C158        C547   1.412       .  A
C158        N159   1.434       .  S
N159        O163   1.262       .  A
N159        O164   1.262       .  A
N162        O165   1.263       .  A
N162        O166   1.263       .  A
C167        C168   1.404       .  A
C167        C172   1.393       .  A
C167        H174   1.084       .  S
C168        C169   1.420       .  A
C169        C170   1.413       .  A
C169        N176   1.433       .  S
C170        C171   1.408       .  A
C170        H175   1.083       .  S
C171        C172   1.420       .  A
C172        N173   1.435       .  S
N173        O177   1.263       .  A
N173        O178   1.262       .  A
N176        O179   1.262       .  A
N176        O180   1.262       .  A
C181        C182   1.402       .  A
C181        C186   1.385       .  A
C181        H188   1.083       .  S
C182        C183   1.418       .  A
C183        C184   1.414       .  A
C183        N190   1.437       .  S
C184        C185   1.408       .  A
C184        H189   1.083       .  S
C185        C186   1.414       .  A
C186        N187   1.435       .  S
N187        O191   1.262       .  A
N187        O192   1.263       .  A
N190        O193   1.263       .  A
N190        O194   1.263       .  A
C195        C200   1.398       .  A
C195        C976   1.403       .  A
C195        H202   1.084       .  S
C196        C197   1.415       .  A
C196        C975   1.403   1_455  A
C197        C198   1.400       .  A
C197        N204   1.431       .  S
C198        C199   1.402       .  A
C198        H203   1.084       .  S
C199        C980   1.413   1_455  A
C200        C979   1.413       .  A
C200        N201   1.432       .  S
N201        O205   1.262       .  A
N201        O206   1.262       .  A
N204        O207   1.262       .  A
N204        O208   1.262       .  A
C209        C214   1.406       .  A
C209        C990   1.406       .  A
C209        H216   1.084       .  S
C210        C211   1.416       .  A
C210        C989   1.406   1_455  A
C211        C212   1.403       .  A
C211        N218   1.438       .  S
C212        C213   1.404   1_455  A
C212        H217   1.084       .  S
C213        C994   1.416       .  A
C214        C993   1.416       .  A
C214        N215   1.439       .  S
N215        O219   1.263       .  A
N215        O220   1.263       .  A
N218        O221   1.263       .  A
N218        O222   1.263       .  A
C223        C224   1.402       .  A
C223        C228   1.394       .  A
C223        H230   1.084       .  S
C224        C225   1.419       .  A
C225        C226   1.413       .  A
C225        N232   1.434   1_554  S
C226        C227   1.405       .  A
C226        H231   1.084       .  S
C227        C228   1.412       .  A
C228        N229   1.439       .  S
N229        O233   1.262       .  A
N229        O234   1.263       .  A
N232        O235   1.262       .  A
N232        O236   1.262   1_556  A
C237        C238   1.405       .  A
C237        C242   1.415       .  A
C237        H244   1.083   1_554  S
C238        C239   1.410       .  A
C239        C240   1.392       .  A
C239        N246   1.433       .  S
C240        C241   1.403       .  A
C240        H245   1.085       .  S
C241        C242   1.419       .  A
C242        N243   1.440   1_554  S
N243        O247   1.263       .  A
N243        O248   1.262   1_556  A
N246        O249   1.262   1_554  A
N246        O250   1.262       .  A
C251        C252   1.394       .  A
C251        C256   1.395       .  A
C251        H258   1.085       .  S
C252        C253   1.416       .  A
C253        C254   1.416       .  A
C253        N260   1.446       .  S
C254        C255   1.412       .  A
C254        H259   1.082       .  S
C255        C256   1.422       .  A
C256        N257   1.436       .  S
N257        O261   1.262       .  A
N257        O262   1.262       .  A
N260        O263   1.262       .  A
N260        O264   1.263       .  A
C265        C266   1.397       .  A
C265        C270   1.398       .  A
C265        H272   1.085       .  S
C266        C267   1.418       .  A
C267        C268   1.415       .  A
C267        N274   1.447       .  S
C268        C269   1.409       .  A
C268        H273   1.083       .  S
C269        C270   1.421       .  A
C270        N271   1.437       .  S
N271        O275   1.263       .  A
N271        O276   1.263       .  A
N274        O277   1.262       .  A
N274        O278   1.263       .  A
C279        C280   1.394       .  A
C279        C284   1.387       .  A
C279        H286   1.086       .  S
C280        C281   1.418       .  A
C281        C282   1.416       .  A
C281        N288   1.444       .  S
C282        C283   1.409       .  A
C282        H287   1.083       .  S
C283        C284   1.415       .  A
C284        N285   1.434       .  S
N285        O289   1.262       .  A
N285        O290   1.263       .  A
N288        O291   1.262       .  A
N288        O292   1.263       .  A
C293        C294   1.406       .  A
C293        C298   1.416       .  A
C293        H300   1.083       .  S
C294        C295   1.416       .  A
C295        C296   1.392       .  A
C295        N302   1.439       .  S
C296        C297   1.400       .  A
C296        H301   1.085       .  S
C297        C298   1.419       .  A
C298        N299   1.440       .  S
N299        O303   1.263       .  A
N299        O304   1.262       .  A
N302        O305   1.263       .  A
N302        O306   1.263       .  A
C307        C308   1.403       .  A
C307        C312   1.401       .  A
C307        H314   1.084       .  S
C308        C309   1.415       .  A
C309        C310   1.407       .  A
C309        N316   1.441       .  S
C310        C311   1.406       .  A
C310        H315   1.084       .  S
C311        C312   1.413       .  A
C312        N313   1.433       .  S
N313        O317   1.262       .  A
N313        O318   1.262       .  A
N316        O319   1.263       .  A
N316        O320   1.263       .  A
C321        C322   1.403       .  A
C321        C326   1.404       .  A
C321        H328   1.084       .  S
C322        C323   1.414       .  A
C323        C324   1.403       .  A
C323        N330   1.436       .  S
C324        C325   1.404       .  A
C324        H329   1.084       .  S
C325        C326   1.415       .  A
C326        N327   1.440       .  S
N327        O331   1.263       .  A
N327        O332   1.263       .  A
N330        O333   1.262       .  A
N330        O334   1.262       .  A
C335        C336   1.397       .  A
C335        C340   1.397       .  A
C335        H342   1.085       .  S
C336        C337   1.416   1_556  A
C337        C338   1.412       .  A
C337        N344   1.447       .  S
C338        C339   1.409   1_554  A
C338        H343   1.082       .  S
C339        C340   1.420       .  A
C340        N341   1.436       .  S
N341        O345   1.263       .  A
N341        O346   1.263       .  A
N344        O347   1.262       .  A
N344        O348   1.263       .  A
C349        C350   1.400   1_556  A
C349        C354   1.389       .  A
C349        H356   1.085       .  S
C350        C351   1.418       .  A
C351        C352   1.414       .  A
C351        N358   1.442       .  S
C352        C353   1.407   1_554  A
C352        H357   1.083       .  S
C353        C354   1.410       .  A
C354        N355   1.431       .  S
N355        O359   1.262   1_556  A
N355        O360   1.262       .  A
N358        O361   1.262       .  A
N358        O362   1.263       .  A
C363        C364   1.408       .  A
C363        C368   1.419       .  A
C363        H370   1.084       .  S
C364        C365   1.407   1_554  A
C365        C366   1.391   1_556  A
C365        N372   1.440       .  S
C366        C367   1.403       .  A
C366        H371   1.072   1_554  S
C367        C368   1.421       .  A
C368        N369   1.438       .  S
N369        O373   1.262   1_554  A
N369        O374   1.262       .  A
N372        O375   1.261       .  A
N372        O376   1.264   1_556  A
C377        C378   1.405   1_554  A
C377        C382   1.408       .  A
C377        H384   1.084       .  S
C378        C379   1.416       .  A
C379        C380   1.400       .  A
C379        N386   1.439       .  S
C380        C381   1.404       .  A
C380        H385   1.084       .  S
C381        C382   1.418   1_556  A
C382        N383   1.434       .  S
N383        O387   1.262       .  A
N383        O388   1.262       .  A
N386        O389   1.263       .  A
N386        O390   1.263       .  A
Zn391       O395   1.978   1_554  S
Zn391       O396   2.032       .  S
Zn391       O400   2.020       .  S
Zn391       O407   2.042       .  S
Zn392       O395   1.937       .  S
Zn392       O397   1.986       .  S
Zn392       O399   2.002       .  S
Zn392       O403   2.015       .  S
Zn393       O395   1.983   1_554  S
Zn393       O398   2.018       .  S
Zn393       O401   2.040       .  S
Zn393       O404   2.043       .  S
Zn394       O395   1.935       .  S
Zn394       O402   1.989       .  S
Zn394       O405   2.016       .  S
Zn394       O406   1.991       .  S
O396        C408   1.272   1_554  A
O397        C409   1.271       .  A
O398        C410   1.275       .  A
O399        C408   1.273       .  A
O400        C410   1.275       .  A
O401        C409   1.276   1_554  A
O402        C411   1.272       .  A
O403        C412   1.271       .  A
O404        C411   1.274   1_554  A
O405        C412   1.272       .  A
O406        C413   1.270       .  A
O407        C413   1.277   1_554  A
C408        C771   1.487       .  S
C409        C743   1.479       .  S
C410        C715   1.477       .  S
C411        C754   1.481   1_556  S
C412        C701   1.482       .  S
C413        C729   1.493       .  S
Zn414       O418   1.929       .  S
Zn414       O419   2.000       .  S
Zn414       O423   1.991       .  S
Zn414       O430   1.971       .  S
Zn415       O418   1.946       .  S
Zn415       O420   1.986       .  S
Zn415       O422   2.020       .  S
Zn415       O426   2.016       .  S
Zn416       O418   1.990       .  S
Zn416       O421   2.055       .  S
Zn416       O424   2.051       .  S
Zn416       O427   2.042       .  S
Zn417       O418   1.975       .  S
Zn417       O425   2.010       .  S
Zn417       O428   2.028       .  S
Zn417       O429   2.046       .  S
O419        C431   1.270       .  A
O420        C432   1.272       .  A
O421        C433   1.277       .  A
O422        C431   1.271       .  A
O423        C433   1.269       .  A
O424        C432   1.277       .  A
O425        C434   1.274       .  A
O426        C435   1.273       .  A
O427        C434   1.277       .  A
O428        C435   1.274       .  A
O429        C436   1.275       .  A
O430        C436   1.269       .  A
C431        C712   1.476       .  S
C432        C687   1.479       .  S
C433        C645   1.498       .  S
C434        C698   1.477       .  S
C435        C656   1.472       .  S
C436        C673   1.483       .  S
Zn437       O441   1.984       .  S
Zn437      O1222   2.045       .  S
Zn437       O446   2.051   1_655  S
Zn437       O453   2.023       .  S
Zn438      O1221   1.937   1_556  S
Zn438       O443   2.011       .  S
Zn438       O445   1.990       .  S
Zn438       O449   1.986       .  S
Zn439       O441   1.929   1_456  S
Zn439       O444   1.983       .  S
Zn439       O447   1.993       .  S
Zn439       O450   1.979       .  S
Zn440       O441   1.984       .  S
Zn440       O448   2.059   1_655  S
Zn440      O1231   2.054       .  S
Zn440       O452   2.026       .  S
O441      Zn1218   1.937   1_554  S
O442      Zn1217   2.045       .  S
O442        C454   1.276   1_554  A
O443       C1235   1.272       .  A
O444        C456   1.270   1_556  A
O445        C454   1.271       .  A
O446        C456   1.275       .  A
O447        C455   1.268       .  A
O448        C457   1.275       .  A
O449        C458   1.270   1_556  A
O450        C457   1.271   1_556  A
O451      Zn1220   2.054       .  S
O451        C458   1.277       .  A
O452        C459   1.276       .  A
O453        C459   1.276       .  A
C454        C768   1.483       .  S
C455       O1223   1.272   1_455  A
C455        C586   1.478       .  S
C456        C617   1.477       .  S
C457        C757   1.488       .  S
C458        C628   1.477       .  S
C459        C600   1.485   1_655  S
Zn460       O464   1.989       .  S
Zn460      O1245   2.066   1_455  S
Zn460       O469   2.038       .  S
Zn460       O476   2.073       .  S
Zn461      O1244   1.914       .  S
Zn461       O466   1.960       .  S
Zn461       O468   1.967       .  S
Zn461       O472   1.981       .  S
Zn462       O464   1.979   1_655  S
Zn462       O467   2.012       .  S
Zn462      O1250   2.040       .  S
Zn462       O473   2.031   1_655  S
Zn463       O464   1.927       .  S
Zn463       O471   1.982       .  S
Zn463       O474   2.016       .  S
Zn463       O475   1.973       .  S
O464      Zn1241   1.914   1_455  S
O465      Zn1240   2.066       .  S
O465        C477   1.278       .  A
O466        C478   1.269       .  A
O467        C479   1.275       .  A
O468        C477   1.269       .  A
O469        C479   1.277   1_455  A
O470      Zn1242   2.040       .  S
O470        C478   1.273       .  A
O471        C480   1.270       .  A
O472       C1261   1.266       .  A
O473        C480   1.274       .  A
O474        C481   1.271       .  A
O475        C482   1.269       .  A
O476        C482   1.280       .  A
C477        C684   1.482       .  S
C478        C572   1.484       .  S
C479        C603   1.483       .  S
C480        C670   1.465       .  S
C481       O1252   1.266   1_455  A
C481        C589   1.474       .  S
C482        C561   1.496       .  S
Zn483       O487   1.932       .  S
Zn483       O488   1.976       .  S
Zn483       O492   1.990       .  S
Zn483       O499   2.008       .  S
Zn484       O487   1.986   1_556  S
Zn484       O489   2.026       .  S
Zn484       O491   2.042       .  S
Zn485       O487   1.974   1_556  S
Zn485       O490   2.048       .  S
Zn485       O493   2.018       .  S
Zn486       O494   2.003       .  S
Zn486       O497   1.989       .  S
Zn486       O498   2.014       .  S
O488        C500   1.270       .  A
O489        C501   1.274       .  A
O490        C502   1.276   1_556  A
O491        C500   1.275   1_556  A
O492        C502   1.272       .  A
O493        C501   1.274       .  A
O494        C503   1.271   1_554  A
O495        C504   1.274   1_556  A
O496        C503   1.274       .  A
O497        C504   1.273       .  A
O499        C505   1.271       .  A
C500        C740   1.472       .  S
C501        C530   1.476       .  S
C502        C631   1.481       .  S
C503        C726   1.469       .  S
C504        C614   1.485       .  S
C505        C547   1.479       .  S
Zn506       O510   1.988       .  S
Zn506       O511   2.058       .  S
Zn506       O522   2.032       .  S
Zn507       O510   1.922       .  S
Zn507       O512   1.997       .  S
Zn507       O514   1.985       .  S
Zn507       O518   1.966       .  S
Zn508       O513   1.994       .  S
Zn508       O516   2.030       .  S
Zn508       O519   2.006       .  S
Zn509       O510   1.976       .  S
Zn509       O520   2.041       .  S
Zn509       O521   2.004       .  S
O511        C523   1.278       .  A
O512        C524   1.269       .  A
O513        C525   1.274       .  A
O514        C523   1.269       .  A
O515        C525   1.276       .  A
O517        C526   1.274       .  A
O518        C527   1.268       .  A
O519        C526   1.272       .  A
O520        C527   1.274       .  A
O521        C528   1.273       .  A
O522        C528   1.276       .  A
C523        C659   1.496       .  S
C524        C533   1.485       .  S
C525        C558   1.497       .  S
C526        C642   1.470       .  S
C527        C575   1.483       .  S
C528        C544   1.478       .  S
C529        C530   1.401       .  A
C529        C534   1.402       .  A
C529        H536   1.084       .  S
C531        C532   1.406       .  A
C531        N538   1.439       .  S
C532        H537   1.084       .  S
C533        C534   1.418       .  A
C534        N535   1.438       .  S
N535        O539   1.263       .  A
N535        O540   1.263       .  A
N538        O541   1.261       .  A
N538        O542   1.263       .  A
C543        C548   1.400       .  A
C543        H550   1.084       .  S
C544        C545   1.415       .  A
C545        C546   1.405       .  A
C545        N552   1.439       .  S
C546        C547   1.405       .  A
C546        H551   1.084       .  S
C548        N549   1.434       .  S
N549        O553   1.262       .  A
N549        O554   1.262       .  A
N552        O555   1.263       .  A
N552        O556   1.263       .  A
C557        C558   1.404       .  A
C557        C562   1.393       .  A
C557        H564   1.084       .  S
C558        C559   1.420       .  A
C559        C560   1.413       .  A
C559        N566   1.433       .  S
C560        C561   1.408       .  A
C560        H565   1.083       .  S
C561        C562   1.420       .  A
C562        N563   1.435       .  S
N563        O567   1.263       .  A
N563        O568   1.262       .  A
N566        O569   1.262       .  A
N566        O570   1.262       .  A
C571        C572   1.402       .  A
C571        C576   1.385       .  A
C571        H578   1.083       .  S
C572        C573   1.418       .  A
C573        C574   1.414       .  A
C573        N580   1.437       .  S
C574        C575   1.408       .  A
C574        H579   1.083       .  S
C575        C576   1.414       .  A
C576        N577   1.435       .  S
N577        O581   1.262       .  A
N577        O582   1.263       .  A
N580        O583   1.263       .  A
N580        O584   1.263       .  A
C585       C1366   1.403       .  A
C585        C590   1.398       .  A
C585        H592   1.084       .  S
C586       C1365   1.403   1_455  A
C586        C587   1.415       .  A
C587        C588   1.400       .  A
C587        N594   1.431       .  S
C588        C589   1.402       .  A
C588        H593   1.084       .  S
C589       C1370   1.413   1_455  A
C590       C1369   1.413       .  A
C590        N591   1.432       .  S
N591        O595   1.262       .  A
N591        O596   1.262       .  A
N594        O597   1.262       .  A
N594        O598   1.262       .  A
C599       C1380   1.406       .  A
C599        C604   1.406       .  A
C599        H606   1.084       .  S
C600       C1379   1.406   1_455  A
C600        C601   1.416       .  A
C601        C602   1.403       .  A
C601        N608   1.438       .  S
C602        C603   1.404   1_455  A
C602        H607   1.084       .  S
C603       C1384   1.416       .  A
C604       C1383   1.416       .  A
C604        N605   1.439       .  S
N605        O609   1.263       .  A
N605        O610   1.263       .  A
N608        O611   1.263       .  A
N608        O612   1.263       .  A
C613        C614   1.402       .  A
C613        C618   1.394       .  A
C613        H620   1.084       .  S
C614        C615   1.419       .  A
C615        C616   1.413       .  A
C615        N622   1.434   1_554  S
C616        C617   1.405       .  A
C616        H621   1.084       .  S
C617        C618   1.412       .  A
C618        N619   1.439       .  S
N619        O623   1.262       .  A
N619        O624   1.263       .  A
N622        O625   1.262       .  A
N622        O626   1.262   1_556  A
C627        C628   1.405       .  A
C627        C632   1.415       .  A
C627        H634   1.083   1_554  S
C628        C629   1.410       .  A
C629        C630   1.392       .  A
C629        N636   1.433       .  S
C630        C631   1.403       .  A
C630        H635   1.085       .  S
C631        C632   1.419       .  A
C632        N633   1.440   1_554  S
N633        O637   1.263       .  A
N633        O638   1.262   1_556  A
N636        O639   1.262   1_554  A
N636        O640   1.262       .  A
C641        C642   1.394       .  A
C641        C646   1.395       .  A
C641        H648   1.085       .  S
C642        C643   1.416       .  A
C643        C644   1.416       .  A
C643        N650   1.446       .  S
C644        C645   1.412       .  A
C644        H649   1.082       .  S
C645        C646   1.422       .  A
C646        N647   1.436       .  S
N647        O651   1.262       .  A
N647        O652   1.262       .  A
N650        O653   1.262       .  A
N650        O654   1.263       .  A
C655        C656   1.397       .  A
C655        C660   1.398       .  A
C655        H662   1.085       .  S
C656        C657   1.418       .  A
C657        C658   1.415       .  A
C657        N664   1.447       .  S
C658        C659   1.409       .  A
C658        H663   1.083       .  S
C659        C660   1.421       .  A
C660        N661   1.437       .  S
N661        O665   1.263       .  A
N661        O666   1.263       .  A
N664        O667   1.262       .  A
N664        O668   1.263       .  A
C669        C670   1.394       .  A
C669        C674   1.387       .  A
C669        H676   1.086       .  S
C670        C671   1.418       .  A
C671        C672   1.416       .  A
C671        N678   1.444       .  S
C672        C673   1.409       .  A
C672        H677   1.083       .  S
C673        C674   1.415       .  A
C674        N675   1.434       .  S
N675        O679   1.262       .  A
N675        O680   1.263       .  A
N678        O681   1.262       .  A
N678        O682   1.263       .  A
C683        C684   1.406       .  A
C683        C688   1.416       .  A
C683        H690   1.083       .  S
C684        C685   1.416       .  A
C685        C686   1.392       .  A
C685        N692   1.439       .  S
C686        C687   1.400       .  A
C686        H691   1.085       .  S
C687        C688   1.419       .  A
C688        N689   1.440       .  S
N689        O693   1.263       .  A
N689        O694   1.262       .  A
N692        O695   1.263       .  A
N692        O696   1.263       .  A
C697        C698   1.403       .  A
C697        C702   1.401       .  A
C697        H704   1.084       .  S
C698        C699   1.415       .  A
C699        C700   1.407       .  A
C699        N706   1.441       .  S
C700        C701   1.406       .  A
C700        H705   1.084       .  S
C701        C702   1.413       .  A
C702        N703   1.433       .  S
N703        O707   1.262       .  A
N703        O708   1.262       .  A
N706        O709   1.263       .  A
N706        O710   1.263       .  A
C711        C712   1.403       .  A
C711        C716   1.404       .  A
C711        H718   1.084       .  S
C712        C713   1.414       .  A
C713        C714   1.403       .  A
C713        N720   1.436       .  S
C714        C715   1.404       .  A
C714        H719   1.084       .  S
C715        C716   1.415       .  A
C716        N717   1.440       .  S
N717        O721   1.263       .  A
N717        O722   1.263       .  A
N720        O723   1.262       .  A
N720        O724   1.262       .  A
C725        C726   1.397       .  A
C725        C730   1.397       .  A
C725        H732   1.085       .  S
C726        C727   1.417   1_556  A
C727        C728   1.412       .  A
C727        N734   1.447       .  S
C728        C729   1.409   1_554  A
C728        H733   1.082       .  S
C729        C730   1.420       .  A
C730        N731   1.436       .  S
N731        O735   1.263       .  A
N731        O736   1.263       .  A
N734        O737   1.262       .  A
N734        O738   1.263       .  A
C739        C740   1.400   1_556  A
C739        C744   1.389       .  A
C739        H746   1.085       .  S
C740        C741   1.418       .  A
C741        C742   1.414       .  A
C741        N748   1.442       .  S
C742        C743   1.407   1_554  A
C742        H747   1.083       .  S
C743        C744   1.410       .  A
C744        N745   1.431       .  S
N745        O749   1.262   1_556  A
N745        O750   1.262       .  A
N748        O751   1.262       .  A
N748        O752   1.263       .  A
C753        C754   1.408       .  A
C753        C758   1.418       .  A
C753        H760   1.083       .  S
C754        C755   1.409   1_554  A
C755        C756   1.388       .  A
C755        N762   1.436       .  S
C756        C757   1.403   1_556  A
C756        H761   1.081       .  S
C757        C758   1.421       .  A
C758        N759   1.437       .  S
N759        O763   1.263   1_554  A
N759        O764   1.261       .  A
N762        O765   1.262       .  A
N762        O766   1.263   1_556  A
C767        C768   1.405   1_554  A
C767        C772   1.408       .  A
C767        H774   1.084       .  S
C768        C769   1.416       .  A
C769        C770   1.400       .  A
C769        N776   1.439       .  S
C770        C771   1.404       .  A
C770        H775   1.084       .  S
C771        C772   1.418   1_556  A
C772        N773   1.434       .  S
N773        O777   1.262       .  A
N773        O778   1.262       .  A
N776        O779   1.263       .  A
N776        O780   1.263       .  A
Zn781       O785   1.977   1_554  S
Zn781       O786   2.032       .  S
Zn781       O790   2.020       .  S
Zn781       O797   2.042       .  S
Zn782       O785   1.937       .  S
Zn782       O787   1.986       .  S
Zn782       O789   2.002       .  S
Zn782       O793   2.015       .  S
Zn783       O785   1.983   1_554  S
Zn783       O788   2.017       .  S
Zn783       O791   2.038       .  S
Zn783       O794   2.034       .  S
Zn784       O785   1.934       .  S
Zn784       O792   1.981       .  S
Zn784       O795   2.016       .  S
Zn784       O796   1.991       .  S
O786        C798   1.272   1_554  A
O787        C799   1.271       .  A
O788        C800   1.275       .  A
O789        C798   1.273       .  A
O790        C800   1.275       .  A
O791        C799   1.276   1_554  A
O792        C801   1.272       .  A
O793        C802   1.271       .  A
O794        C801   1.273   1_554  A
O795        C802   1.272       .  A
O796        C803   1.270       .  A
O797        C803   1.277   1_554  A
C798       C1161   1.487       .  S
C799       C1133   1.479       .  S
C800       C1105   1.477       .  S
C801       C1144   1.477   1_556  S
C802       C1091   1.482       .  S
C803       C1119   1.493       .  S
Zn804       O808   1.929       .  S
Zn804       O809   2.000       .  S
Zn804       O813   1.991       .  S
Zn804       O820   1.971       .  S
Zn805       O808   1.946       .  S
Zn805       O810   1.986       .  S
Zn805       O812   2.020       .  S
Zn805       O816   2.016       .  S
Zn806       O808   1.990       .  S
Zn806       O811   2.055       .  S
Zn806       O814   2.051       .  S
Zn806       O817   2.042       .  S
Zn807       O808   1.975       .  S
Zn807       O815   2.010       .  S
Zn807       O818   2.028       .  S
Zn807       O819   2.046       .  S
O809        C821   1.270       .  A
O810        C822   1.272       .  A
O811        C823   1.277       .  A
O812        C821   1.271       .  A
O813        C823   1.269       .  A
O814        C822   1.277       .  A
O815        C824   1.274       .  A
O816        C825   1.273       .  A
O817        C824   1.277       .  A
O818        C825   1.274       .  A
O819        C826   1.275       .  A
O820        C826   1.269       .  A
C821       C1102   1.476       .  S
C822       C1077   1.479       .  S
C823       C1035   1.498       .  S
C824       C1088   1.477       .  S
C825       C1046   1.472       .  S
C826       C1063   1.483       .  S
Zn827       O831   1.985       .  S
Zn827       O836   2.051       .  S
Zn827       O843   2.023       .  S
Zn828       O833   2.011       .  S
Zn828       O835   1.990       .  S
Zn828       O839   1.986       .  S
Zn829       O831   1.931   1_556  S
Zn829       O834   1.982       .  S
Zn829       O837   1.993       .  S
Zn829       O840   1.985       .  S
Zn830       O831   1.985       .  S
Zn830       O838   2.070       .  S
Zn830       O842   2.028       .  S
O832        C844   1.276   1_554  A
O834        C846   1.270   1_556  A
O835        C844   1.271       .  A
O836        C846   1.275       .  A
O837        C845   1.268       .  A
O838        C847   1.275       .  A
O839        C848   1.270   1_556  A
O840        C847   1.271   1_556  A
O841        C848   1.277       .  A
O842        C849   1.277       .  A
O843        C849   1.276       .  A
C844       C1158   1.483       .  S
C845        C976   1.478       .  S
C846       C1007   1.477       .  S
C847       C1147   1.488       .  S
C848       C1018   1.477       .  S
C849        C990   1.485       .  S
Zn850       O854   1.989       .  S
Zn850       O859   2.038       .  S
Zn850       O866   2.073       .  S
Zn851       O856   1.960       .  S
Zn851       O858   1.967       .  S
Zn851       O862   1.981       .  S
Zn852       O854   1.979       .  S
Zn852       O857   2.012       .  S
Zn852       O863   2.031       .  S
Zn853       O854   1.927       .  S
Zn853       O861   1.982       .  S
Zn853       O864   2.016       .  S
Zn853       O865   1.973       .  S
O855        C867   1.278       .  A
O856        C868   1.269       .  A
O857        C869   1.275       .  A
O858        C867   1.269       .  A
O859        C869   1.277       .  A
O860        C868   1.273       .  A
O861        C870   1.270       .  A
O863        C870   1.274       .  A
O864        C871   1.271       .  A
O865        C872   1.269       .  A
O866        C872   1.280       .  A
C867       C1074   1.482       .  S
C868        C962   1.484       .  S
C869        C993   1.483       .  S
C870       C1060   1.465       .  S
C871        C979   1.474       .  S
C872        C951   1.496       .  S
Zn873       O877   1.932   1_545  S
Zn873       O878   1.976       .  S
Zn873       O882   1.990       .  S
Zn873       O889   2.008       .  S
Zn874       O877   1.986   1_556  S
Zn874       O879   2.026       .  S
Zn874       O881   2.042   1_565  S
Zn874      O1275   2.043       .  S
Zn875       O877   1.974   1_546  S
Zn875       O880   2.047       .  S
Zn875       O883   2.018       .  S
Zn875      O1276   2.029   1_545  S
Zn876      O1267   1.938       .  S
Zn876       O884   2.003       .  S
Zn876       O887   1.989       .  S
Zn876       O888   2.014       .  S
O877      Zn1266   1.938       .  S
O878        C890   1.270       .  A
O879        C891   1.274       .  A
O880        C892   1.276   1_556  A
O881        C890   1.275   1_556  A
O882        C892   1.272       .  A
O883        C891   1.274   1_545  A
O884        C893   1.271   1_554  A
O885      Zn1264   2.043       .  S
O885        C894   1.274   1_556  A
O886      Zn1265   2.029       .  S
O886        C893   1.274       .  A
O887        C894   1.273       .  A
O888       C1285   1.271       .  A
O889        C895   1.271   1_545  A
C890       C1130   1.472       .  S
C891        C920   1.476       .  S
C892       C1021   1.481       .  S
C893       C1116   1.469       .  S
C894       C1004   1.486       .  S
C895       O1278   1.271       .  A
C895        C937   1.479       .  S
Zn896       O900   1.988       .  S
Zn896       O901   2.058   1_565  S
Zn896      O1295   2.051       .  S
Zn896       O912   2.032   1_565  S
Zn897       O900   1.922   1_545  S
Zn897       O902   1.997       .  S
Zn897       O904   1.985       .  S
Zn897       O908   1.966       .  S
Zn898      O1290   1.941       .  S
Zn898       O903   1.994       .  S
Zn898       O906   2.030       .  S
Zn898       O909   2.006       .  S
Zn899       O900   1.976   1_545  S
Zn899      O1297   2.031   1_545  S
Zn899       O910   2.041       .  S
Zn899       O911   2.004       .  S
O900      Zn1288   1.941       .  S
O901        C913   1.278       .  A
O902        C914   1.269   1_545  A
O903        C915   1.274       .  A
O904        C913   1.269       .  A
O905      Zn1286   2.051       .  S
O905        C915   1.276       .  A
O906       C1304   1.274       .  A
O907      Zn1289   2.031       .  S
O907        C916   1.274       .  A
O908        C917   1.268       .  A
O909        C916   1.272       .  A
O910        C917   1.274       .  A
O911        C918   1.273       .  A
O912        C918   1.276       .  A
C913       C1049   1.496       .  S
C914       O1296   1.274       .  A
C914        C923   1.485       .  S
C915        C948   1.497       .  S
C916       C1032   1.470       .  S
C917        C965   1.483       .  S
C918        C934   1.478       .  S
C919        C920   1.401   1_545  A
C919        C924   1.402       .  A
C919        H926   1.084       .  S
C920       C1311   1.416       .  A
C921       C1310   1.416       .  A
C921        C922   1.406       .  A
C921        N928   1.439       .  S
C922       C1313   1.405       .  A
C922        H927   1.084       .  S
C923       C1312   1.405       .  A
C923        C924   1.418   1_565  A
C924        N925   1.438       .  S
N925        O929   1.263       .  A
N925        O930   1.263       .  A
N928        O931   1.261       .  A
N928        O932   1.263       .  A
C933       C1324   1.404       .  A
C933        C938   1.400       .  A
C933        H940   1.084       .  S
C934       C1323   1.404   1_545  A
C934        C935   1.415       .  A
C935        C936   1.405       .  A
C935        N942   1.439       .  S
C936        C937   1.405   1_545  A
C936        H941   1.084       .  S
C937       C1328   1.412       .  A
C938       C1327   1.412       .  A
C938        N939   1.434       .  S
N939        O943   1.262       .  A
N939        O944   1.262       .  A
N942        O945   1.263       .  A
N942        O946   1.263       .  A
C947        C948   1.404       .  A
C947        C952   1.393       .  A
C947        H954   1.084       .  S
C948        C949   1.420       .  A
C949        C950   1.413       .  A
C949        N956   1.433       .  S
C950        C951   1.408       .  A
C950        H955   1.083       .  S
C951        C952   1.420       .  A
C952        N953   1.435       .  S
N953        O957   1.263       .  A
N953        O958   1.262       .  A
N956        O959   1.262       .  A
N956        O960   1.262       .  A
C961        C962   1.402       .  A
C961        C966   1.385       .  A
C961        H968   1.083       .  S
C962        C963   1.418       .  A
C963        C964   1.414       .  A
C963        N970   1.437       .  S
C964        C965   1.408       .  A
C964        H969   1.083       .  S
C965        C966   1.414       .  A
C966        N967   1.435       .  S
N967        O971   1.262       .  A
N967        O972   1.263       .  A
N970        O973   1.263       .  A
N970        O974   1.263       .  A
C975        C980   1.398       .  A
C975        H982   1.084       .  S
C976        C977   1.415       .  A
C977        C978   1.400       .  A
C977        N984   1.431       .  S
C978        C979   1.402       .  A
C978        H983   1.084       .  S
C980        N981   1.432       .  S
N981        O985   1.262       .  A
N981        O986   1.262       .  A
N984        O987   1.262       .  A
N984        O988   1.262       .  A
C989        C994   1.406       .  A
C989        H996   1.084       .  S
C990        C991   1.416       .  A
C991        C992   1.403       .  A
C991        N998   1.438       .  S
C992        C993   1.404       .  A
C992        H997   1.084       .  S
C994        N995   1.439       .  S
N995        O999   1.263       .  A
N995       O1000   1.263       .  A
N998       O1001   1.263       .  A
N998       O1002   1.263       .  A
C1003      C1004   1.402       .  A
C1003      C1008   1.394       .  A
C1003      H1010   1.084       .  S
C1004      C1005   1.419       .  A
C1005      C1006   1.413       .  A
C1005      N1012   1.434   1_554  S
C1006      C1007   1.405       .  A
C1006      H1011   1.084       .  S
C1007      C1008   1.412       .  A
C1008      N1009   1.439       .  S
N1009      O1013   1.262       .  A
N1009      O1014   1.263       .  A
N1012      O1015   1.262       .  A
N1012      O1016   1.262   1_556  A
C1017      C1018   1.405       .  A
C1017      C1022   1.415       .  A
C1017      H1024   1.083   1_554  S
C1018      C1019   1.410       .  A
C1019      C1020   1.392       .  A
C1019      N1026   1.433       .  S
C1020      C1021   1.403       .  A
C1020      H1025   1.085       .  S
C1021      C1022   1.419       .  A
C1022      N1023   1.440   1_554  S
N1023      O1027   1.263       .  A
N1023      O1028   1.262   1_556  A
N1026      O1029   1.262   1_554  A
N1026      O1030   1.262       .  A
C1031      C1032   1.394       .  A
C1031      C1036   1.395       .  A
C1031      H1038   1.085       .  S
C1032      C1033   1.416       .  A
C1033      C1034   1.416       .  A
C1033      N1040   1.446       .  S
C1034      C1035   1.412       .  A
C1034      H1039   1.082       .  S
C1035      C1036   1.422       .  A
C1036      N1037   1.436       .  S
N1037      O1041   1.262       .  A
N1037      O1042   1.262       .  A
N1040      O1043   1.262       .  A
N1040      O1044   1.263       .  A
C1045      C1046   1.397       .  A
C1045      C1050   1.398       .  A
C1045      H1052   1.085       .  S
C1046      C1047   1.418       .  A
C1047      C1048   1.415       .  A
C1047      N1054   1.447       .  S
C1048      C1049   1.409       .  A
C1048      H1053   1.083       .  S
C1049      C1050   1.421       .  A
C1050      N1051   1.437       .  S
N1051      O1055   1.263       .  A
N1051      O1056   1.263       .  A
N1054      O1057   1.262       .  A
N1054      O1058   1.263       .  A
C1059      C1060   1.394       .  A
C1059      C1064   1.387       .  A
C1059      H1066   1.086       .  S
C1060      C1061   1.418       .  A
C1061      C1062   1.416       .  A
C1061      N1068   1.444       .  S
C1062      C1063   1.409       .  A
C1062      H1067   1.083       .  S
C1063      C1064   1.415       .  A
C1064      N1065   1.434       .  S
N1065      O1069   1.262       .  A
N1065      O1070   1.263       .  A
N1068      O1071   1.262       .  A
N1068      O1072   1.263       .  A
C1073      C1074   1.406       .  A
C1073      C1078   1.416       .  A
C1073      H1080   1.083       .  S
C1074      C1075   1.416       .  A
C1075      C1076   1.392       .  A
C1075      N1082   1.439       .  S
C1076      C1077   1.400       .  A
C1076      H1081   1.085       .  S
C1077      C1078   1.419       .  A
C1078      N1079   1.440       .  S
N1079      O1083   1.263       .  A
N1079      O1084   1.262       .  A
N1082      O1085   1.263       .  A
N1082      O1086   1.263       .  A
C1087      C1088   1.403       .  A
C1087      C1092   1.401       .  A
C1087      H1094   1.084       .  S
C1088      C1089   1.415       .  A
C1089      C1090   1.407       .  A
C1089      N1096   1.441       .  S
C1090      C1091   1.406       .  A
C1090      H1095   1.084       .  S
C1091      C1092   1.413       .  A
C1092      N1093   1.433       .  S
N1093      O1097   1.262       .  A
N1093      O1098   1.262       .  A
N1096      O1099   1.263       .  A
N1096      O1100   1.263       .  A
C1101      C1102   1.403       .  A
C1101      C1106   1.404       .  A
C1101      H1108   1.084       .  S
C1102      C1103   1.414       .  A
C1103      C1104   1.403       .  A
C1103      N1110   1.436       .  S
C1104      C1105   1.404       .  A
C1104      H1109   1.084       .  S
C1105      C1106   1.415       .  A
C1106      N1107   1.440       .  S
N1107      O1111   1.263       .  A
N1107      O1112   1.263       .  A
N1110      O1113   1.262       .  A
N1110      O1114   1.262       .  A
C1115      C1116   1.397       .  A
C1115      C1120   1.397       .  A
C1115      H1122   1.085       .  S
C1116      C1117   1.416   1_556  A
C1117      C1118   1.412       .  A
C1117      N1124   1.447       .  S
C1118      C1119   1.409   1_554  A
C1118      H1123   1.082       .  S
C1119      C1120   1.420       .  A
C1120      N1121   1.436       .  S
N1121      O1125   1.263       .  A
N1121      O1126   1.263       .  A
N1124      O1127   1.262       .  A
N1124      O1128   1.263       .  A
C1129      C1130   1.400   1_556  A
C1129      C1134   1.389       .  A
C1129      H1136   1.085       .  S
C1130      C1131   1.418       .  A
C1131      C1132   1.414       .  A
C1131      N1138   1.442       .  S
C1132      C1133   1.407   1_554  A
C1132      H1137   1.083       .  S
C1133      C1134   1.410       .  A
C1134      N1135   1.431       .  S
N1135      O1139   1.262   1_556  A
N1135      O1140   1.262       .  A
N1138      O1141   1.262       .  A
N1138      O1142   1.263       .  A
C1143      C1144   1.408       .  A
C1143      C1148   1.419       .  A
C1143      H1150   1.084       .  S
C1144      C1145   1.407   1_554  A
C1145      C1146   1.391   1_556  A
C1145      N1152   1.440       .  S
C1146      C1147   1.403       .  A
C1146      H1151   1.072   1_554  S
C1147      C1148   1.421       .  A
C1148      N1149   1.438       .  S
N1149      O1153   1.262   1_554  A
N1149      O1154   1.262       .  A
N1152      O1155   1.261       .  A
N1152      O1156   1.264   1_556  A
C1157      C1158   1.405   1_554  A
C1157      C1162   1.408       .  A
C1157      H1164   1.084       .  S
C1158      C1159   1.416       .  A
C1159      C1160   1.400       .  A
C1159      N1166   1.439       .  S
C1160      C1161   1.404       .  A
C1160      H1165   1.084       .  S
C1161      C1162   1.418   1_556  A
C1162      N1163   1.434       .  S
N1163      O1167   1.262       .  A
N1163      O1168   1.262       .  A
N1166      O1169   1.263       .  A
N1166      O1170   1.263       .  A
Zn1171     O1175   1.978   1_554  S
Zn1171     O1176   2.032       .  S
Zn1171     O1180   2.020       .  S
Zn1171     O1187   2.042       .  S
Zn1172     O1175   1.937       .  S
Zn1172     O1177   1.986       .  S
Zn1172     O1179   2.002       .  S
Zn1172     O1183   2.015       .  S
Zn1173     O1175   1.983   1_554  S
Zn1173     O1178   2.018       .  S
Zn1173     O1181   2.040       .  S
Zn1173     O1184   2.043       .  S
Zn1174     O1175   1.935       .  S
Zn1174     O1182   1.989       .  S
Zn1174     O1185   2.016       .  S
Zn1174     O1186   1.991       .  S
O1176      C1188   1.272   1_554  A
O1177      C1189   1.271       .  A
O1178      C1190   1.275       .  A
O1179      C1188   1.273       .  A
O1180      C1190   1.275       .  A
O1181      C1189   1.276   1_554  A
O1182      C1191   1.272       .  A
O1183      C1192   1.271       .  A
O1184      C1191   1.274   1_554  A
O1185      C1192   1.272       .  A
O1186      C1193   1.270       .  A
O1187      C1193   1.277   1_554  A
C1188      C1551   1.487       .  S
C1189      C1523   1.479       .  S
C1190      C1495   1.477       .  S
C1191      C1534   1.481   1_556  S
C1192      C1481   1.482       .  S
C1193      C1509   1.493       .  S
Zn1194     O1198   1.929       .  S
Zn1194     O1199   2.000       .  S
Zn1194     O1203   1.991       .  S
Zn1194     O1210   1.971       .  S
Zn1195     O1198   1.946       .  S
Zn1195     O1200   1.986       .  S
Zn1195     O1202   2.020       .  S
Zn1195     O1206   2.016       .  S
Zn1196     O1198   1.990       .  S
Zn1196     O1201   2.055       .  S
Zn1196     O1204   2.051       .  S
Zn1196     O1207   2.042       .  S
Zn1197     O1198   1.975       .  S
Zn1197     O1205   2.010       .  S
Zn1197     O1208   2.028       .  S
Zn1197     O1209   2.046       .  S
O1199      C1211   1.270       .  A
O1200      C1212   1.272       .  A
O1201      C1213   1.277       .  A
O1202      C1211   1.271       .  A
O1203      C1213   1.269       .  A
O1204      C1212   1.277       .  A
O1205      C1214   1.274       .  A
O1206      C1215   1.273       .  A
O1207      C1214   1.277       .  A
O1208      C1215   1.274       .  A
O1209      C1216   1.275       .  A
O1210      C1216   1.269       .  A
C1211      C1492   1.476       .  S
C1212      C1467   1.479       .  S
C1213      C1425   1.498       .  S
C1214      C1478   1.477       .  S
C1215      C1436   1.472       .  S
C1216      C1453   1.483       .  S
Zn1217     O1221   1.984       .  S
Zn1217     O1226   2.051       .  S
Zn1217     O1233   2.023       .  S
Zn1218     O1223   2.011       .  S
Zn1218     O1225   1.990       .  S
Zn1218     O1229   1.986       .  S
Zn1219     O1221   1.929   1_556  S
Zn1219     O1224   1.983       .  S
Zn1219     O1227   1.993       .  S
Zn1219     O1230   1.979       .  S
Zn1220     O1221   1.984       .  S
Zn1220     O1228   2.059       .  S
Zn1220     O1232   2.026       .  S
O1222      C1234   1.276   1_554  A
O1224      C1236   1.270   1_556  A
O1225      C1234   1.271       .  A
O1226      C1236   1.275       .  A
O1227      C1235   1.268       .  A
O1228      C1237   1.275       .  A
O1229      C1238   1.270   1_556  A
O1230      C1237   1.271   1_556  A
O1231      C1238   1.277       .  A
O1232      C1239   1.276       .  A
O1233      C1239   1.276       .  A
C1234      C1548   1.483       .  S
C1235      C1366   1.478       .  S
C1236      C1397   1.477       .  S
C1237      C1537   1.488       .  S
C1238      C1408   1.477       .  S
C1239      C1380   1.485       .  S
Zn1240     O1244   1.989       .  S
Zn1240     O1249   2.038       .  S
Zn1240     O1256   2.073       .  S
Zn1241     O1246   1.960       .  S
Zn1241     O1248   1.967       .  S
Zn1241     O1252   1.981       .  S
Zn1242     O1244   1.979       .  S
Zn1242     O1247   2.012       .  S
Zn1242     O1253   2.031       .  S
Zn1243     O1244   1.927       .  S
Zn1243     O1251   1.982       .  S
Zn1243     O1254   2.016       .  S
Zn1243     O1255   1.973       .  S
O1245      C1257   1.278       .  A
O1246      C1258   1.269       .  A
O1247      C1259   1.275       .  A
O1248      C1257   1.269       .  A
O1249      C1259   1.277       .  A
O1250      C1258   1.273       .  A
O1251      C1260   1.270       .  A
O1253      C1260   1.274       .  A
O1254      C1261   1.271       .  A
O1255      C1262   1.269       .  A
O1256      C1262   1.280       .  A
C1257      C1464   1.482       .  S
C1258      C1352   1.484       .  S
C1259      C1383   1.483       .  S
C1260      C1450   1.465       .  S
C1261      C1369   1.474       .  S
C1262      C1341   1.496       .  S
Zn1263     O1267   1.932       .  S
Zn1263     O1268   1.976       .  S
Zn1263     O1272   1.990       .  S
Zn1263     O1279   2.008       .  S
Zn1264     O1267   1.986   1_556  S
Zn1264     O1269   2.026       .  S
Zn1264     O1271   2.042       .  S
Zn1265     O1267   1.974   1_556  S
Zn1265     O1270   2.048       .  S
Zn1265     O1273   2.018       .  S
Zn1266     O1274   2.003       .  S
Zn1266     O1277   1.989       .  S
Zn1266     O1278   2.014       .  S
O1268      C1280   1.270       .  A
O1269      C1281   1.274       .  A
O1270      C1282   1.276   1_556  A
O1271      C1280   1.275   1_556  A
O1272      C1282   1.272       .  A
O1273      C1281   1.274       .  A
O1274      C1283   1.271   1_554  A
O1275      C1284   1.274   1_556  A
O1276      C1283   1.274       .  A
O1277      C1284   1.273       .  A
O1279      C1285   1.271       .  A
C1280      C1520   1.472       .  S
C1281      C1310   1.476       .  S
C1282      C1411   1.481       .  S
C1283      C1506   1.469       .  S
C1284      C1394   1.485       .  S
C1285      C1327   1.479       .  S
Zn1286     O1290   1.988       .  S
Zn1286     O1291   2.058       .  S
Zn1286     O1302   2.032       .  S
Zn1287     O1290   1.922       .  S
Zn1287     O1292   1.997       .  S
Zn1287     O1294   1.985       .  S
Zn1287     O1298   1.966       .  S
Zn1288     O1293   1.994       .  S
Zn1288     O1296   2.030       .  S
Zn1288     O1299   2.006       .  S
Zn1289     O1290   1.976       .  S
Zn1289     O1300   2.041       .  S
Zn1289     O1301   2.004       .  S
O1291      C1303   1.278       .  A
O1292      C1304   1.269       .  A
O1293      C1305   1.274       .  A
O1294      C1303   1.269       .  A
O1295      C1305   1.276       .  A
O1297      C1306   1.274       .  A
O1298      C1307   1.268       .  A
O1299      C1306   1.272       .  A
O1300      C1307   1.274       .  A
O1301      C1308   1.273       .  A
O1302      C1308   1.276       .  A
C1303      C1439   1.496       .  S
C1304      C1313   1.485       .  S
C1305      C1338   1.497       .  S
C1306      C1422   1.470       .  S
C1307      C1355   1.483       .  S
C1308      C1324   1.478       .  S
C1309      C1310   1.401       .  A
C1309      C1314   1.402       .  A
C1309      H1316   1.084       .  S
C1311      C1312   1.406       .  A
C1311      N1318   1.439       .  S
C1312      H1317   1.084       .  S
C1313      C1314   1.418       .  A
C1314      N1315   1.438       .  S
N1315      O1319   1.263       .  A
N1315      O1320   1.263       .  A
N1318      O1321   1.261       .  A
N1318      O1322   1.263       .  A
C1323      C1328   1.400       .  A
C1323      H1330   1.084       .  S
C1324      C1325   1.415       .  A
C1325      C1326   1.405       .  A
C1325      N1332   1.439       .  S
C1326      C1327   1.405       .  A
C1326      H1331   1.084       .  S
C1328      N1329   1.434       .  S
N1329      O1333   1.262       .  A
N1329      O1334   1.262       .  A
N1332      O1335   1.263       .  A
N1332      O1336   1.263       .  A
C1337      C1338   1.404       .  A
C1337      C1342   1.393       .  A
C1337      H1344   1.084       .  S
C1338      C1339   1.420       .  A
C1339      C1340   1.413       .  A
C1339      N1346   1.433       .  S
C1340      C1341   1.408       .  A
C1340      H1345   1.083       .  S
C1341      C1342   1.420       .  A
C1342      N1343   1.435       .  S
N1343      O1347   1.263       .  A
N1343      O1348   1.262       .  A
N1346      O1349   1.262       .  A
N1346      O1350   1.262       .  A
C1351      C1352   1.402       .  A
C1351      C1356   1.385       .  A
C1351      H1358   1.083       .  S
C1352      C1353   1.418       .  A
C1353      C1354   1.414       .  A
C1353      N1360   1.437       .  S
C1354      C1355   1.408       .  A
C1354      H1359   1.083       .  S
C1355      C1356   1.414       .  A
C1356      N1357   1.435       .  S
N1357      O1361   1.262       .  A
N1357      O1362   1.263       .  A
N1360      O1363   1.263       .  A
N1360      O1364   1.263       .  A
C1365      C1370   1.398       .  A
C1365      H1372   1.084       .  S
C1366      C1367   1.415       .  A
C1367      C1368   1.400       .  A
C1367      N1374   1.431       .  S
C1368      C1369   1.402       .  A
C1368      H1373   1.084       .  S
C1370      N1371   1.432       .  S
N1371      O1375   1.262       .  A
N1371      O1376   1.262       .  A
N1374      O1377   1.262       .  A
N1374      O1378   1.262       .  A
C1379      C1384   1.406       .  A
C1379      H1386   1.084       .  S
C1380      C1381   1.416       .  A
C1381      C1382   1.403       .  A
C1381      N1388   1.438       .  S
C1382      C1383   1.404       .  A
C1382      H1387   1.084       .  S
C1384      N1385   1.439       .  S
N1385      O1389   1.263       .  A
N1385      O1390   1.263       .  A
N1388      O1391   1.263       .  A
N1388      O1392   1.263       .  A
C1393      C1394   1.402       .  A
C1393      C1398   1.394       .  A
C1393      H1400   1.084       .  S
C1394      C1395   1.419       .  A
C1395      C1396   1.413       .  A
C1395      N1402   1.434   1_554  S
C1396      C1397   1.405       .  A
C1396      H1401   1.084       .  S
C1397      C1398   1.412       .  A
C1398      N1399   1.439       .  S
N1399      O1403   1.262       .  A
N1399      O1404   1.263       .  A
N1402      O1405   1.262       .  A
N1402      O1406   1.262   1_556  A
C1407      C1408   1.405       .  A
C1407      C1412   1.415       .  A
C1407      H1414   1.083   1_554  S
C1408      C1409   1.410       .  A
C1409      C1410   1.392       .  A
C1409      N1416   1.433       .  S
C1410      C1411   1.403       .  A
C1410      H1415   1.085       .  S
C1411      C1412   1.419       .  A
C1412      N1413   1.440   1_554  S
N1413      O1417   1.263       .  A
N1413      O1418   1.262   1_556  A
N1416      O1419   1.262   1_554  A
N1416      O1420   1.262       .  A
C1421      C1422   1.394       .  A
C1421      C1426   1.395       .  A
C1421      H1428   1.085       .  S
C1422      C1423   1.416       .  A
C1423      C1424   1.416       .  A
C1423      N1430   1.446       .  S
C1424      C1425   1.412       .  A
C1424      H1429   1.082       .  S
C1425      C1426   1.422       .  A
C1426      N1427   1.436       .  S
N1427      O1431   1.262       .  A
N1427      O1432   1.262       .  A
N1430      O1433   1.262       .  A
N1430      O1434   1.263       .  A
C1435      C1436   1.397       .  A
C1435      C1440   1.398       .  A
C1435      H1442   1.085       .  S
C1436      C1437   1.418       .  A
C1437      C1438   1.415       .  A
C1437      N1444   1.447       .  S
C1438      C1439   1.409       .  A
C1438      H1443   1.083       .  S
C1439      C1440   1.421       .  A
C1440      N1441   1.437       .  S
N1441      O1445   1.263       .  A
N1441      O1446   1.263       .  A
N1444      O1447   1.262       .  A
N1444      O1448   1.263       .  A
C1449      C1450   1.394       .  A
C1449      C1454   1.387       .  A
C1449      H1456   1.086       .  S
C1450      C1451   1.418       .  A
C1451      C1452   1.416       .  A
C1451      N1458   1.444       .  S
C1452      C1453   1.409       .  A
C1452      H1457   1.083       .  S
C1453      C1454   1.415       .  A
C1454      N1455   1.434       .  S
N1455      O1459   1.262       .  A
N1455      O1460   1.263       .  A
N1458      O1461   1.262       .  A
N1458      O1462   1.263       .  A
C1463      C1464   1.406       .  A
C1463      C1468   1.416       .  A
C1463      H1470   1.083       .  S
C1464      C1465   1.416       .  A
C1465      C1466   1.392       .  A
C1465      N1472   1.439       .  S
C1466      C1467   1.400       .  A
C1466      H1471   1.085       .  S
C1467      C1468   1.419       .  A
C1468      N1469   1.440       .  S
N1469      O1473   1.263       .  A
N1469      O1474   1.262       .  A
N1472      O1475   1.263       .  A
N1472      O1476   1.263       .  A
C1477      C1478   1.403       .  A
C1477      C1482   1.401       .  A
C1477      H1484   1.084       .  S
C1478      C1479   1.415       .  A
C1479      C1480   1.407       .  A
C1479      N1486   1.441       .  S
C1480      C1481   1.406       .  A
C1480      H1485   1.084       .  S
C1481      C1482   1.413       .  A
C1482      N1483   1.433       .  S
N1483      O1487   1.262       .  A
N1483      O1488   1.262       .  A
N1486      O1489   1.263       .  A
N1486      O1490   1.263       .  A
C1491      C1492   1.403       .  A
C1491      C1496   1.404       .  A
C1491      H1498   1.084       .  S
C1492      C1493   1.414       .  A
C1493      C1494   1.403       .  A
C1493      N1500   1.436       .  S
C1494      C1495   1.404       .  A
C1494      H1499   1.084       .  S
C1495      C1496   1.415       .  A
C1496      N1497   1.440       .  S
N1497      O1501   1.263       .  A
N1497      O1502   1.263       .  A
N1500      O1503   1.262       .  A
N1500      O1504   1.262       .  A
C1505      C1506   1.397       .  A
C1505      C1510   1.397       .  A
C1505      H1512   1.085       .  S
C1506      C1507   1.417   1_556  A
C1507      C1508   1.412       .  A
C1507      N1514   1.447       .  S
C1508      C1509   1.409   1_554  A
C1508      H1513   1.082       .  S
C1509      C1510   1.420       .  A
C1510      N1511   1.436       .  S
N1511      O1515   1.263       .  A
N1511      O1516   1.263       .  A
N1514      O1517   1.262       .  A
N1514      O1518   1.263       .  A
C1519      C1520   1.400   1_556  A
C1519      C1524   1.389       .  A
C1519      H1526   1.085       .  S
C1520      C1521   1.418       .  A
C1521      C1522   1.414       .  A
C1521      N1528   1.442       .  S
C1522      C1523   1.407   1_554  A
C1522      H1527   1.083       .  S
C1523      C1524   1.410       .  A
C1524      N1525   1.431       .  S
N1525      O1529   1.262   1_556  A
N1525      O1530   1.262       .  A
N1528      O1531   1.262       .  A
N1528      O1532   1.263       .  A
C1533      C1534   1.408       .  A
C1533      C1538   1.418       .  A
C1533      H1540   1.083       .  S
C1534      C1535   1.409   1_554  A
C1535      C1536   1.388       .  A
C1535      N1542   1.436       .  S
C1536      C1537   1.403   1_556  A
C1536      H1541   1.081       .  S
C1537      C1538   1.421       .  A
C1538      N1539   1.437       .  S
N1539      O1543   1.263   1_554  A
N1539      O1544   1.261       .  A
N1542      O1545   1.262       .  A
N1542      O1546   1.263   1_556  A
C1547      C1548   1.405   1_554  A
C1547      C1552   1.408       .  A
C1547      H1554   1.084       .  S
C1548      C1549   1.416       .  A
C1549      C1550   1.400       .  A
C1549      N1556   1.439       .  S
C1550      C1551   1.404       .  A
C1550      H1555   1.084       .  S
C1551      C1552   1.418   1_556  A
C1552      N1553   1.434       .  S
N1553      O1557   1.262       .  A
N1553      O1558   1.262       .  A
N1556      O1559   1.263       .  A
N1556      O1560   1.263       .  A
