geometry optimzed in LAMMPS
_audit_creation_date              2020-11-30 
_audit_creation_method            'lammps2cif' 
_symmetry_space_group_name_H-M    'P1' 
_symmetry_Int_Tables_number       1 
_symmetry_cell_setting            triclinic 
loop_ 
_symmetry_equiv_pos_as_xyz 
  x,y,z 
_cell_length_a                    47.45854753 
_cell_length_b                    47.45425881277093 
_cell_length_c                    47.47542629642423 
_cell_angle_alpha                 89.87591028610534 
_cell_angle_beta                  89.18586706156513 
_cell_angle_gamma                 90.1410976012773 
loop_ 
_atom_site_label 
_atom_site_type_symbol 
_atom_site_fract_x 
_atom_site_fract_y 
_atom_site_fract_z 
_atom_site_charge 
Zn1        Zn  0.52031247  0.52434216  0.01886676     1.49700
Zn2        Zn  0.52302442  0.47628657  0.96988714     1.49400
Zn3        Zn  0.47373230  0.47439240  0.01770680     1.49100
Zn4        Zn  0.47430291  0.52324622  0.96971949     1.49500
O5          O  0.49790963  0.49949388  0.99410708    -1.83500
O6          O  0.56244145  0.51770765  0.01212919    -0.74200
O7          O  0.51697593  0.43405678  0.97787448    -0.74000
O8          O  0.47988595  0.48157898  0.05960736    -0.73500
O9          O  0.56405988  0.48585270  0.97767054    -0.74200
O10         O  0.51112595  0.51665144  0.06037301    -0.73800
O11         O  0.48292411  0.43291906  0.01062418    -0.74400
O12         O  0.43310292  0.51508943  0.97683705    -0.73800
O13         O  0.51596028  0.48341570  0.92789342    -0.74500
O14         O  0.43199762  0.48111850  0.00931964    -0.73900
O15         O  0.48169455  0.51533585  0.92815007    -0.74400
O16         O  0.48075424  0.56514942  0.97708881    -0.74300
O17         O  0.51230375  0.56600110  0.01132010    -0.74100
C18         C  0.57631065  0.50218179  0.99497462     0.77700
C19         C  0.50049542  0.42035315  0.99445190     0.78200
C20         C  0.49506000  0.49902432  0.07309311     0.77200
C21         C  0.41951862  0.49803994  0.99270975     0.77500
C22         C  0.49870458  0.49921907  0.91489817     0.78700
C23         C  0.49621130  0.57869265  0.99417936     0.77700
Zn24       Zn  0.47445484  0.01902085  0.48465371     1.49700
Zn25       Zn  0.52241680  0.02309259  0.53144859     1.49400
Zn26       Zn  0.47583528  0.97268819  0.53529947     1.49100
Zn27       Zn  0.52389785  0.97155674  0.48676837     1.49500
O28         O  0.49908535  0.99652218  0.50954447    -1.83500
O29         O  0.48060155  0.06149898  0.48957699    -0.74200
O30         O  0.51574070  0.01727971  0.57356954    -0.74000
O31         O  0.43373123  0.98164363  0.53046663    -0.73500
O32         O  0.51388555  0.06428424  0.52194152    -0.74200
O33         O  0.43292639  0.01111904  0.49384565    -0.73800
O34         O  0.48587932  0.98099170  0.57615592    -0.74400
O35         O  0.51546303  0.92964876  0.49423823    -0.73800
O36         O  0.56416779  0.01633159  0.52363828    -0.74500
O37         O  0.48247486  0.93015665  0.52801804    -0.73900
O38         O  0.56547983  0.97909366  0.49515595    -0.74400
O39         O  0.51803244  0.97899750  0.44497078    -0.74300
O40         O  0.48293554  0.01008863  0.44328778    -0.74100
C41         C  0.49688482  0.07603615  0.50501206     0.77700
C42         C  0.50134061  0.99946714  0.58790142     0.78200
C43         C  0.42020899  0.99675331  0.51293073     0.77200
C44         C  0.49875853  0.91666825  0.51115038     0.77500
C45         C  0.57791434  0.99796193  0.50955684     0.78700
C46         C  0.50109421  0.99433737  0.43107281     0.77700
Zn47       Zn  0.97174852  0.52557065  0.51393226     1.49700
Zn48       Zn  0.01991761  0.52543734  0.46485649     1.49400
Zn49       Zn  0.02016897  0.47788408  0.51406994     1.49100
Zn50       Zn  0.97222525  0.47617489  0.46663991     1.49500
O51         O  0.99600327  0.50130991  0.48983376    -1.83500
O52         O  0.97953402  0.56728160  0.50614245    -0.74200
O53         O  0.06194575  0.51872880  0.47179426    -0.74000
O54         O  0.01222027  0.48552899  0.55582703    -0.73500
O55         O  0.01248697  0.56728602  0.47234476    -0.74200
O56         O  0.97930676  0.51883244  0.55589310    -0.73800
O57         O  0.06154972  0.48671466  0.50611367    -0.74400
O58         O  0.98026718  0.43446392  0.47501224    -0.73800
O59         O  0.01204138  0.51695845  0.42334969    -0.74500
O60         O  0.01419785  0.43578254  0.50683075    -0.73900
O61         O  0.97984774  0.48276939  0.42470227    -0.74400
O62         O  0.93041481  0.48422337  0.47358238    -0.74300
O63         O  0.93008279  0.51803069  0.50604868    -0.74100
C64         C  0.99619142  0.58048938  0.48937101     0.77700
C65         C  0.07493910  0.50287805  0.48903201     0.78200
C66         C  0.99587858  0.50241388  0.56907331     0.77200
C67         C  0.99768871  0.42189220  0.49099632     0.77500
C68         C  0.99590556  0.49954774  0.41083933     0.78700
C69         C  0.91707442  0.50141695  0.48950994     0.77700
Zn70       Zn  0.02993958  0.02389427  0.98179481     1.49700
Zn71       Zn  0.98054602  0.02456800  0.03037943     1.49400
Zn72       Zn  0.98236602  0.97616295  0.98280703     1.49100
Zn73       Zn  0.02905872  0.97664305  0.03189966     1.49500
O74         O  0.00557268  0.00036066  0.00688735    -1.83500
O75         O  0.02299591  0.06556871  0.98912146    -0.74200
O76         O  0.93878553  0.01750081  0.02194439    -0.74000
O77         O  0.99104238  0.98215861  0.94094094    -0.73500
O78         O  0.98877877  0.06600821  0.02172958    -0.74200
O79         O  0.02261805  0.01677026  0.93983101    -0.73800
O80         O  0.94082974  0.98454504  0.98876828    -0.74400
O81         O  0.02165909  0.93442012  0.02492397    -0.73800
O82         O  0.98651714  0.01736821  0.07265253    -0.74500
O83         O  0.98854125  0.93498807  0.99219533    -0.73900
O84         O  0.02005133  0.98470870  0.07378542    -0.74400
O85         O  0.07096979  0.98489183  0.02432132    -0.74300
O86         O  0.07137734  0.01616535  0.98923366    -0.74100
C87         C  0.00592578  0.07893165  0.00518437     0.77700
C88         C  0.92664396  0.00106318  0.00463756     0.78200
C89         C  0.00679834  0.99926099  0.92713856     0.77200
C90         C  0.00457704  0.92152991  0.00881202     0.77500
C91         C  0.00272636  0.00110030  0.08649143     0.78700
C92         C  0.08433986  0.00069664  0.00682063     0.77700
C93         C  0.65131273  0.51670812  0.97644251     0.80800
N94         N  0.66431955  0.49941005  0.99492870    -0.77500
C95         C  0.64940774  0.48385567  0.01395886     0.83300
N96         N  0.62079009  0.48533034  0.01419906    -0.77400
C97         C  0.60731084  0.50234049  0.99563033     0.83400
N98         N  0.62260147  0.51801024  0.97670069    -0.79200
C99         C  0.34579753  0.48652647  0.97023466     0.80800
N100        N  0.37431611  0.48396429  0.97218607    -0.77500
C101        C  0.38859962  0.49875596  0.99211598     0.83300
N102        N  0.37438941  0.51646408  0.00981648    -0.77400
C103        C  0.34598195  0.51914321  0.00784556     0.83400
N104        N  0.33222870  0.50421912  0.98812683    -0.79200
C105        C  0.01460456  0.51450118  0.33583793     0.80800
N106        N  0.01403604  0.51548381  0.36450296    -0.77500
C107        C  0.99598127  0.49865926  0.37959240     0.83300
N108        N  0.97838667  0.48074566  0.36570387    -0.77400
C109        C  0.97882654  0.47960525  0.33698613     0.83400
N110        N  0.99704412  0.49652749  0.32257769    -0.79200
C111        C  0.98408852  0.15312749  0.01749903     0.80800
N112        N  0.98474837  0.12446683  0.01799194    -0.77500
C113        C  0.00579465  0.11010596  0.00451474     0.83300
N114        N  0.02644443  0.12467327  0.99035759    -0.77400
C115        C  0.02628841  0.15338648  0.99032194     0.83400
N116        N  0.00503577  0.16715478  0.00369397    -0.79200
C117        C  0.98577377  0.52607790  0.64339693     0.80800
N118        N  0.98391913  0.52475272  0.61479810    -0.77500
C119        C  0.99657050  0.50321149  0.60034412     0.83300
N120        N  0.01062155  0.48279319  0.61483713    -0.77400
C121        C  0.01192713  0.48366491  0.64349757     0.83400
N122        N  0.99951746  0.50543139  0.65725264    -0.79200
Zn123      Zn  0.19345779  0.31108803  0.84568028     1.49700
Zn124      Zn  0.13993976  0.30521693  0.80397339     1.49400
Zn125      Zn  0.18767006  0.35523041  0.79476114     1.49100
Zn126      Zn  0.19834124  0.29299002  0.78797098     1.49500
O127        O  0.17795634  0.31846973  0.80946411    -1.83500
O128        O  0.16301837  0.29216283  0.86931075    -0.74200
O129        O  0.11954603  0.33715623  0.78325016    -0.74000
O130        O  0.20551298  0.37823026  0.82627169    -0.73500
O131        O  0.12470237  0.29206094  0.84236793    -0.74200
O132        O  0.20831785  0.34701982  0.86130806    -0.73800
O133        O  0.15210596  0.37116331  0.77746768    -0.74400
O134        O  0.23366324  0.30991597  0.77486432    -0.73800
O135        O  0.13878985  0.27013921  0.77811536    -0.74500
O136        O  0.21827503  0.35252077  0.76386351    -0.73900
O137        O  0.17770054  0.28104968  0.75454846    -0.74400
O138        O  0.20840310  0.25913082  0.81000414    -0.74300
O139        O  0.22775572  0.28525830  0.84268360    -0.74100
C140        C  0.13711951  0.28591986  0.86539895     0.77700
C141        C  0.12742084  0.36114669  0.77330579     0.78200
C142        C  0.21359133  0.37132660  0.85095171     0.77200
C143        C  0.23638017  0.33285038  0.76141502     0.77500
C144        C  0.15563401  0.26630501  0.75737244     0.78700
C145        C  0.22768181  0.26311942  0.82773063     0.77700
C146        C  0.01983270  0.84568206  0.02311499     0.80800
N147        N  0.99827915  0.83341838  0.00932844    -0.77500
C148        C  0.97906999  0.84883816  0.99534705     0.83300
N149        N  0.98161363  0.87736779  0.99492363    -0.77400
C150        C  0.00272589  0.89034373  0.00923867     0.83400
N151        N  0.02184007  0.87439459  0.02347457    -0.79200
Zn152      Zn  0.80200880  0.71132195  0.79401457     1.49700
Zn153      Zn  0.81572254  0.65148461  0.80390448     1.49400
Zn154      Zn  0.86136413  0.70257448  0.80909600     1.49100
Zn155      Zn  0.80791861  0.69761247  0.85411419     1.49500
O156        O  0.82356639  0.68892397  0.81719717    -1.83500
O157        O  0.76684343  0.69213697  0.78323419    -0.74200
O158        O  0.85190916  0.63561964  0.78733327    -0.74000
O159        O  0.86092793  0.73640694  0.78167085    -0.73500
O160        O  0.78712216  0.65176596  0.77190234    -0.74200
O161        O  0.82287355  0.72214412  0.75962493    -0.73800
O162        O  0.88341388  0.67057428  0.78968921    -0.74400
O163        O  0.83967959  0.71552123  0.87626162    -0.73800
O164        O  0.79729356  0.62949085  0.83627036    -0.74500
O165        O  0.87626122  0.71779478  0.84605094    -0.73900
O166        O  0.79096817  0.66129210  0.87036746    -0.74400
O167        O  0.77586958  0.72710928  0.85206713    -0.74300
O168        O  0.79193077  0.74660327  0.81282847    -0.74100
C169        C  0.76713261  0.66938231  0.76935592     0.77700
C170        C  0.87636610  0.64574360  0.78172951     0.78200
C171        C  0.84344440  0.73901247  0.76175434     0.77200
C172        C  0.86499114  0.72307143  0.87014781     0.77500
C173        C  0.78732789  0.63645394  0.86047438     0.78700
C174        C  0.77502470  0.74667139  0.83366475     0.77700
Zn175      Zn  0.79659226  0.34923225  0.19352317     1.49700
Zn176      Zn  0.79249869  0.29980928  0.14564966     1.49400
Zn177      Zn  0.84223194  0.29748201  0.19159037     1.49100
Zn178      Zn  0.78314542  0.29070286  0.20800596     1.49500
O179        O  0.80511229  0.31100431  0.18248774    -1.83500
O180        O  0.77818999  0.36846816  0.16008928    -0.74200
O181        O  0.82616012  0.28360457  0.12383254    -0.74000
O182        O  0.86354269  0.33071732  0.20874861    -0.73500
O183        O  0.77420309  0.33415018  0.12806422    -0.74200
O184        O  0.83273779  0.36638699  0.20734149    -0.73800
O185        O  0.85993451  0.28150489  0.15589715    -0.74400
O186        O  0.80339195  0.28362833  0.24332439    -0.73800
O187        O  0.76291327  0.26823006  0.14828658    -0.74500
O188        O  0.83963311  0.26505849  0.22081434    -0.73900
O189        O  0.77237329  0.25441906  0.19176811    -0.74400
O190        O  0.74846458  0.31024935  0.21899925    -0.74300
O191        O  0.76910543  0.35092745  0.22762970    -0.74100
C192        C  0.76959503  0.35942765  0.13629598     0.77700
C193        C  0.85100511  0.27642296  0.13109758     0.78200
C194        C  0.85670978  0.35629957  0.21404281     0.77200
C195        C  0.82287136  0.26557562  0.24202476     0.77500
C196        C  0.76001562  0.25075948  0.16855127     0.78700
C197        C  0.75007577  0.33272344  0.23315143     0.77700
Zn198      Zn  0.23437942  0.68077942  0.18072175     1.49700
Zn199      Zn  0.18618443  0.68302717  0.22585905     1.49400
Zn200      Zn  0.18989572  0.72906836  0.17814389     1.49100
Zn201      Zn  0.17074614  0.66489803  0.16239309     1.49500
O202        O  0.19466810  0.68909511  0.18636740    -1.83500
O203        O  0.25329686  0.66432506  0.21404763    -0.74200
O204        O  0.17269557  0.71782756  0.24548361    -0.74000
O205        O  0.22564853  0.74884389  0.16578946    -0.73500
O206        O  0.22101967  0.67364215  0.24689979    -0.74200
O207        O  0.25704726  0.71570500  0.17485324    -0.73800
O208        O  0.17743432  0.75086810  0.21257277    -0.74400
O209        O  0.14593409  0.69097954  0.13740488    -0.73800
O210        O  0.15858361  0.65230092  0.23102661    -0.74500
O211        O  0.16225849  0.73364672  0.14828179    -0.73900
O212        O  0.14575003  0.63863436  0.18823959    -0.74400
O213        O  0.19708920  0.64105507  0.13600869    -0.74300
O214        O  0.23978464  0.65579953  0.14830474    -0.74100
C215        C  0.24601485  0.66709251  0.23967703     0.77700
C216        C  0.17246358  0.74352717  0.23795239     0.78200
C217        C  0.25095638  0.74098402  0.16887988     0.77200
C218        C  0.14624304  0.71782415  0.13406122     0.77500
C219        C  0.14412322  0.63647764  0.21518797     0.78700
C220        C  0.22399340  0.64097618  0.13282824     0.77700
C221        C  0.48711634  0.34573505  0.97522826     0.80800
N222        N  0.48635987  0.37441121  0.97531404    -0.77500
C223        C  0.50138405  0.38920505  0.99461750     0.83300
N224        N  0.51664878  0.37509390  0.01433926    -0.77400
C225        C  0.51730577  0.34631783  0.01452234     0.83400
N226        N  0.50252813  0.33211754  0.99477592    -0.79200
C227        C  0.51385277  0.65217225  0.97408049     0.80800
N228        N  0.51462283  0.62359696  0.97609290    -0.77500
C229        C  0.49607310  0.60976100  0.99340419     0.83300
N230        N  0.47697034  0.62472698  0.00909505    -0.77400
C231        C  0.47642151  0.65344124  0.00733953     0.83400
N232        N  0.49482714  0.66672313  0.98972848    -0.79200
C233        C  0.52166121  0.00907008  0.35660373     0.80800
N234        N  0.50656559  0.98893753  0.34338424    -0.77500
C235        C  0.48930468  0.97123980  0.35779629     0.83300
N236        N  0.48707469  0.97339860  0.38627937    -0.77400
C237        C  0.50230257  0.99330061  0.40009163     0.83400
N238        N  0.51961965  0.01115745  0.38522742    -0.79200
C239        C  0.15831781  0.98931724  0.02893848     0.80800
N240        N  0.12973647  0.98753449  0.02775457    -0.77500
C241        C  0.11555691  0.00152620  0.00721472     0.83300
N242        N  0.13027720  0.01719018  0.98774512    -0.77400
C243        C  0.15896769  0.01860389  0.98849334     0.83400
N244        N  0.17243526  0.00451465  0.00915255    -0.79200
C245        C  0.85032513  0.01697895  0.01700495     0.80800
N246        N  0.87896097  0.01709002  0.01979283    -0.77500
C247        C  0.89553351  0.00107808  0.00229438     0.83300
N248        N  0.88328855  0.98490486  0.98212627    -0.77400
C249        C  0.85492609  0.98531587  0.97882249     0.83400
N250        N  0.83889648  0.00136944  0.99619692    -0.79200
Zn251      Zn  0.65636677  0.80439384  0.80387065     1.49700
Zn252      Zn  0.70375167  0.80205884  0.85354102     1.49400
Zn253      Zn  0.71365883  0.78988239  0.79325189     1.49100
Zn254      Zn  0.70530164  0.85094317  0.80457208     1.49500
O255        O  0.69330921  0.81405187  0.81615865    -1.83500
O256        O  0.63767639  0.78362130  0.83623854    -0.74200
O257        O  0.73413759  0.77067001  0.85247496    -0.74000
O258        O  0.69319430  0.75439737  0.78636466    -0.73500
O259        O  0.66844536  0.78487674  0.87172530    -0.74200
O260        O  0.65766992  0.77842326  0.76958334    -0.73800
O261        O  0.74996447  0.78069255  0.80965952    -0.74400
O262        O  0.73610967  0.84797388  0.77412993    -0.73800
O263        O  0.72181451  0.83625989  0.87262224    -0.74500
O264        O  0.72151666  0.80751738  0.75659577    -0.73900
O265        O  0.72336540  0.86878323  0.83836244    -0.74400
O266        O  0.67153493  0.87162447  0.78804495    -0.74300
O267        O  0.63720819  0.83926966  0.79029433    -0.74100
C268        C  0.64493038  0.77708620  0.86126755     0.77700
C269        C  0.75234717  0.76757087  0.83273295     0.78200
C270        C  0.67376812  0.75712871  0.76865128     0.77200
C271        C  0.73780635  0.82866649  0.75560267     0.77500
C272        C  0.72950725  0.86047959  0.86319061     0.78700
C273        C  0.64629782  0.86362194  0.78309011     0.77700
C274        C  0.52019606  0.98152330  0.66126739     0.80800
N275        N  0.51953381  0.98155095  0.63262067    -0.77500
C276        C  0.50270861  0.00010730  0.61884275     0.83300
N277        N  0.48659386  0.01869713  0.63382852    -0.77400
C278        C  0.48732539  0.01891987  0.66251831     0.83400
N279        N  0.50421326  0.00027137  0.67578862    -0.79200
Zn280      Zn  0.26765743  0.18353942  0.81508913     1.49700
Zn281      Zn  0.33197807  0.17063725  0.83317749     1.49400
Zn282      Zn  0.31404754  0.18439817  0.76903906     1.49100
Zn283      Zn  0.31237209  0.23328488  0.81433606     1.49500
O284        O  0.30713327  0.19285713  0.80847976    -1.83500
O285        O  0.26318595  0.15781696  0.84705639    -0.74200
O286        O  0.35698231  0.14461845  0.80781302    -0.74000
O287        O  0.27866315  0.17590297  0.74836001    -0.73500
O288        O  0.30654917  0.14624852  0.86034557    -0.74200
O289        O  0.24689309  0.16821356  0.78203525    -0.73800
O290        O  0.34099604  0.15333783  0.76473847    -0.74400
O291        O  0.32249896  0.25250924  0.77760381    -0.73800
O292        O  0.35805459  0.19823709  0.85553074    -0.74500
O293        O  0.32844336  0.21725184  0.74737681    -0.73900
O294        O  0.34372029  0.24036491  0.84076459    -0.74400
O295        O  0.27638965  0.25253564  0.82792096    -0.74300
O296        O  0.24551905  0.21771452  0.82303856    -0.74100
C297        C  0.27963225  0.14422080  0.86288788     0.77700
C298        C  0.35724744  0.14015020  0.78116347     0.78200
C299        C  0.25358974  0.17034632  0.75617565     0.77200
C300        C  0.32794189  0.24333294  0.75297419     0.77500
C301        C  0.36018316  0.22522131  0.85528025     0.78700
C302        C  0.25114860  0.24337295  0.82757150     0.77700
Zn303      Zn  0.35892715  0.80252366  0.19315473     1.49700
Zn304      Zn  0.30705298  0.81116973  0.15080866     1.49400
Zn305      Zn  0.30033480  0.79632577  0.21033911     1.49100
Zn306      Zn  0.31594626  0.85559272  0.20199530     1.49500
O307        O  0.32253168  0.81846727  0.18696563    -1.83500
O308        O  0.37392903  0.78829831  0.15562960    -0.74200
O309        O  0.27438641  0.78288754  0.15331849    -0.74000
O310        O  0.32079305  0.78655897  0.24501080    -0.73500
O311        O  0.33797969  0.79390847  0.12636264    -0.74200
O312        O  0.35621545  0.76877770  0.22037638    -0.73800
O313        O  0.28924217  0.76100258  0.19142034    -0.74400
O314        O  0.28847801  0.85410159  0.23593123    -0.73800
O315        O  0.29138808  0.84775877  0.13664264    -0.74500
O316        O  0.26567942  0.81662497  0.22076989    -0.73900
O317        O  0.29727993  0.87906203  0.17117645    -0.74400
O318        O  0.35327839  0.86983376  0.21654633    -0.74300
O319        O  0.38223558  0.83287749  0.21200070    -0.74100
C320        C  0.36286226  0.78508758  0.13140609     0.77700
C321        C  0.27311213  0.76221989  0.17043202     0.78200
C322        C  0.34028678  0.76859212  0.24219595     0.77200
C323        C  0.26744632  0.83742550  0.23726581     0.77500
C324        C  0.28800267  0.87243433  0.14683133     0.78700
C325        C  0.37698066  0.85782971  0.22078816     0.77700
Zn326      Zn  0.64320370  0.19321780  0.19852611     1.49700
Zn327      Zn  0.70341989  0.20426822  0.20840584     1.49400
Zn328      Zn  0.69321534  0.14515176  0.19594038     1.49100
Zn329      Zn  0.69129565  0.19408226  0.14832972     1.49500
O330        O  0.68063088  0.18239317  0.18597192    -1.83500
O331        O  0.64397460  0.22409548  0.22928106    -0.74200
O332        O  0.71231233  0.18587461  0.24440380    -0.74000
O333        O  0.65960632  0.12580363  0.21512065    -0.73500
O334        O  0.68583842  0.24077327  0.21694498    -0.74200
O335        O  0.62539389  0.15814902  0.21615655    -0.73800
O336        O  0.72614576  0.14661970  0.22378622    -0.74400
O337        O  0.70974185  0.16041241  0.12848673    -0.73800
O338        O  0.73944195  0.21120389  0.18896824    -0.74500
O339        O  0.70939896  0.12636485  0.16092081    -0.73900
O340        O  0.72076627  0.22584884  0.14933068    -0.74400
O341        O  0.65640089  0.21084836  0.13058810    -0.74300
O342        O  0.62338824  0.21066504  0.16460314    -0.74100
C343        C  0.66309056  0.24288391  0.23109691     0.77700
C344        C  0.72828104  0.16459482  0.24348111     0.78200
C345        C  0.63470146  0.13363712  0.22243282     0.77200
C346        C  0.71639213  0.13550404  0.13640685     0.77500
C347        C  0.73983511  0.22749285  0.16784782     0.78700
C348        C  0.63173179  0.21736291  0.13964739     0.77700
C349        C  0.50778993  0.47806102  0.14728393     0.80800
N350        N  0.49423256  0.49902181  0.16111858    -0.77500
C351        C  0.48058731  0.51959437  0.14725408     0.83300
N352        N  0.48050357  0.51957109  0.11858659    -0.77400
C353        C  0.49419731  0.49871428  0.10415445     0.83400
N354        N  0.50773741  0.47793719  0.11856710    -0.79200
C355        C  0.84256734  0.51939107  0.50671723     0.80800
N356        N  0.82891007  0.50394398  0.48736438    -0.77500
C357        C  0.84281548  0.48760232  0.46848185     0.83300
N358        N  0.87153115  0.48666435  0.46932427    -0.77400
C359        C  0.88585586  0.50229655  0.48865994     0.83400
N360        N  0.87121515  0.51886790  0.50721395    -0.79200
Zn361      Zn  0.68540705  0.35229784  0.29580562     1.49700
Zn362      Zn  0.70100261  0.29313689  0.28734061     1.49400
Zn363      Zn  0.68848509  0.30724682  0.34746223     1.49100
Zn364      Zn  0.64006715  0.30020688  0.30001047     1.49500
O365        O  0.67688973  0.31474328  0.30939147    -1.83500
O366        O  0.71210069  0.35147022  0.26112741    -0.74200
O367        O  0.71245899  0.25871346  0.30715838    -0.74000
O368        O  0.70454574  0.34328401  0.36344848    -0.73500
O369        O  0.73505820  0.31405716  0.27588779    -0.74200
O370        O  0.70480434  0.37351879  0.32733995    -0.73800
O371        O  0.72071748  0.27860487  0.34835081    -0.74400
O372        O  0.62202695  0.28472349  0.33609357    -0.73800
O373        O  0.68320161  0.28190234  0.25221333    -0.74500
O374        O  0.65493644  0.28997988  0.36890761    -0.73900
O375        O  0.64266982  0.26776967  0.27071718    -0.74400
O376        O  0.61880493  0.33286569  0.28259023    -0.74300
O377        O  0.64895809  0.36908670  0.28258895    -0.74100
C378        C  0.73227342  0.33403041  0.25843562     0.77700
C379        C  0.72497399  0.25903390  0.33052361     0.78200
C380        C  0.71136200  0.36709268  0.35260134     0.77200
C381        C  0.63057323  0.28136562  0.36133257     0.77500
C382        C  0.66193145  0.26581870  0.25180167     0.78700
C383        C  0.62492097  0.35852103  0.27672675     0.77700
C384        C  0.51408385  0.15002442  0.48510699     0.80800
N385        N  0.49623581  0.16416544  0.50236712    -0.77500
C386        C  0.47833032  0.15065833  0.52028878     0.83300
N387        N  0.47835759  0.12191682  0.52086152    -0.77400
C388        C  0.49603951  0.10715053  0.50338082     0.83400
N389        N  0.51397285  0.12129964  0.48548946    -0.79200
C390        C  0.51507223  0.84244476  0.53096702     0.80800
N391        N  0.51441185  0.87119930  0.53092644    -0.77500
C392        C  0.49877414  0.88533901  0.51148035     0.83300
N393        N  0.48408963  0.87044922  0.49179267    -0.77400
C394        C  0.48525187  0.84168247  0.49155746     0.83400
N395        N  0.50067527  0.82826466  0.51113152    -0.79200
Zn396      Zn  0.28045445  0.68261314  0.32094452     1.49700
Zn397      Zn  0.34370134  0.66418161  0.33713241     1.49400
Zn398      Zn  0.32744955  0.68461754  0.27376285     1.49100
Zn399      Zn  0.32752814  0.72900905  0.32255981     1.49500
O400        O  0.32023888  0.68964240  0.31394857    -1.83500
O401        O  0.27458196  0.65249534  0.34855684    -0.74200
O402        O  0.36960143  0.64060042  0.30992043    -0.74000
O403        O  0.29336502  0.67094444  0.25318328    -0.73500
O404        O  0.31724107  0.63739412  0.36057405    -0.74200
O405        O  0.26020769  0.67118542  0.28653281    -0.73800
O406        O  0.35781066  0.65760112  0.26791484    -0.74400
O407        O  0.33836847  0.75161150  0.28856575    -0.73800
O408        O  0.36853958  0.68873791  0.36385889    -0.74500
O409        O  0.33843726  0.72050471  0.25380033    -0.73900
O410        O  0.35701833  0.73243681  0.35102186    -0.74400
O411        O  0.29318315  0.74970248  0.33506660    -0.74300
O412        O  0.25970270  0.71716083  0.33239934    -0.74100
C413        C  0.29027297  0.63594255  0.36219722     0.77700
C414        C  0.37256618  0.64142602  0.28300716     0.78200
C415        C  0.26778935  0.66824873  0.26101952     0.77200
C416        C  0.34065068  0.74562733  0.26261701     0.77500
C417        C  0.37142165  0.71556773  0.36576823     0.78700
C418        C  0.26742290  0.74255102  0.33560624     0.77700
C419        C  0.15042077  0.51824458  0.47170617     0.80800
N420        N  0.12170791  0.51970107  0.47159236    -0.77500
C421        C  0.10618699  0.50270623  0.48929416     0.83300
N422        N  0.11963959  0.48457377  0.50694038    -0.77400
C423        C  0.14825544  0.48321666  0.50715817     0.83400
N424        N  0.16310170  0.50022022  0.48952610    -0.79200
C425        C  0.47530931  0.48683601  0.84156152     0.80800
N426        N  0.47635463  0.48628745  0.87023937    -0.77500
C427        C  0.49817922  0.49890345  0.88382488     0.83300
N428        N  0.51886985  0.51223670  0.86860319    -0.77400
C429        C  0.51790770  0.51292626  0.83992887     0.83400
N430        N  0.49623168  0.49996731  0.82693389    -0.79200
Zn431      Zn  0.29239114  0.35507680  0.69196387     1.49700
Zn432      Zn  0.28528201  0.29475840  0.70500676     1.49400
Zn433      Zn  0.29619500  0.30478711  0.64518535     1.49100
Zn434      Zn  0.34402610  0.31088828  0.69353268     1.49500
O435        O  0.30614872  0.31845431  0.68181947    -1.83500
O436        O  0.26047800  0.35237286  0.72131000    -0.74200
O437        O  0.24915673  0.28369776  0.68830328    -0.74000
O438        O  0.27711080  0.33736537  0.62481001    -0.73500
O439        O  0.27655401  0.31348257  0.74083276    -0.74200
O440        O  0.27568930  0.37175105  0.65687701    -0.73800
O441        O  0.26821894  0.27155191  0.64748516    -0.74400
O442        O  0.36429716  0.29173763  0.66027084    -0.73800
O443        O  0.30661066  0.26024946  0.71298828    -0.74500
O444        O  0.33160632  0.28930953  0.62698836    -0.73900
O445        O  0.34363972  0.28397634  0.72743207    -0.74400
O446        O  0.36090090  0.34713324  0.70838896    -0.74300
O447        O  0.32456690  0.37680769  0.70991473    -0.74100
C448        C  0.25948100  0.33395465  0.74081646     0.77700
C449        C  0.24898429  0.26880071  0.66625156     0.78200
C450        C  0.26977943  0.36221303  0.63248595     0.77200
C451        C  0.35636366  0.28391567  0.63575177     0.77500
C452        C  0.32710291  0.26293935  0.72949445     0.78700
C453        C  0.35007748  0.37072235  0.71577983     0.77700
Zn454      Zn  0.69276739  0.72588032  0.68534558     1.49700
Zn455      Zn  0.73526889  0.67551391  0.68828236     1.49400
Zn456      Zn  0.68629058  0.67945970  0.73097477     1.49100
Zn457      Zn  0.67149582  0.66428623  0.66660469     1.49500
O458        O  0.69593215  0.68590748  0.69194556    -1.83500
O459        O  0.72829622  0.74335623  0.66967523    -0.74200
O460        O  0.75272011  0.65912435  0.72321073    -0.74000
O461        O  0.66778186  0.71198515  0.74991535    -0.73500
O462        O  0.75891757  0.70969539  0.68004044    -0.74200
O463        O  0.68437016  0.74581535  0.72181154    -0.73800
O464        O  0.72096649  0.67512739  0.75371811    -0.74400
O465        O  0.64751391  0.63656516  0.69129807    -0.73800
O466        O  0.73968845  0.64893332  0.65706824    -0.74500
O467        O  0.66205183  0.64600086  0.73478684    -0.73900
O468        O  0.69728346  0.64131171  0.63904150    -0.74400
O469        O  0.64518631  0.69231341  0.64518903    -0.74300
O470        O  0.66148289  0.73367031  0.65997271    -0.74100
C471        C  0.75343505  0.73475129  0.67239908     0.77700
C472        C  0.74554568  0.66619695  0.74804477     0.78200
C473        C  0.67373128  0.73762270  0.74517178     0.77200
C474        C  0.64722354  0.63170066  0.71790269     0.77500
C475        C  0.72400740  0.63717417  0.63906467     0.78700
C476        C  0.64409157  0.71933912  0.64583355     0.77700
C477        C  0.34612451  0.01288475  0.53444582     0.80800
N478        N  0.37490329  0.01295602  0.53383244    -0.77500
C479        C  0.38904844  0.99711385  0.51415093     0.83300
N480        N  0.37426810  0.98168102  0.49512417    -0.77400
C481        C  0.34556723  0.98177638  0.49569463     0.83400
N482        N  0.33204670  0.99743120  0.51536964    -0.79200
C483        C  0.65192586  0.01947036  0.49491141     0.80800
N484        N  0.62331026  0.01787855  0.49371217    -0.77500
C485        C  0.60894915  0.99877034  0.50999559     0.83300
N486        N  0.62329744  0.98152819  0.52781260    -0.77400
C487        C  0.65192132  0.98318346  0.52922265     0.83400
N488        N  0.66568252  0.00213183  0.51265621    -0.79200
C489        C  0.98266158  0.34665447  0.47385345     0.80800
N490        N  0.00248691  0.33367724  0.48928745    -0.77500
C491        C  0.02074941  0.34816669  0.50526212     0.83300
N492        N  0.01890012  0.37681536  0.50640044    -0.77400
C493        C  0.99908679  0.39058310  0.49086086     0.83400
N494        N  0.98107463  0.37534386  0.47453554    -0.79200
C495        C  0.01738975  0.98436060  0.16194884     0.80800
N496        N  0.01896354  0.98444705  0.13319717    -0.77500
C497        C  0.00122672  0.00114435  0.11791500     0.83300
N498        N  0.98197017  0.01780227  0.13175501    -0.77400
C499        C  0.98036299  0.01757453  0.16048851     0.83400
N500        N  0.99806791  0.00086336  0.17484642    -0.79200
C501        C  0.01770047  0.65485636  0.47557725     0.80800
N502        N  0.99966734  0.66880696  0.49282261    -0.77500
C503        C  0.98020969  0.65492083  0.50868641     0.83300
N504        N  0.97898880  0.62624558  0.50746979    -0.77400
C505        C  0.99698383  0.61175241  0.49008207     0.83400
N506        N  0.01632021  0.62622536  0.47405147    -0.79200
Zn507      Zn  0.23347434  0.82492287  0.31987992     1.49700
Zn508      Zn  0.16970302  0.84109525  0.33944337     1.49400
Zn509      Zn  0.18585342  0.82491029  0.27454581     1.49100
Zn510      Zn  0.18631054  0.77779125  0.32027116     1.49500
O511        O  0.19346188  0.81762560  0.31399575    -1.83500
O512        O  0.23870474  0.85199907  0.35026667    -0.74200
O513        O  0.14478114  0.86728842  0.31474779    -0.74000
O514        O  0.22088629  0.83447038  0.25326042    -0.73500
O515        O  0.19605271  0.86528770  0.36507732    -0.74200
O516        O  0.25431622  0.83865680  0.28516831    -0.73800
O517        O  0.15877812  0.85601062  0.27112523    -0.74400
O518        O  0.17523502  0.75741915  0.28527901    -0.73800
O519        O  0.14462012  0.81450261  0.36472612    -0.74500
O520        O  0.17275702  0.79101344  0.25292875    -0.73900
O521        O  0.15787153  0.77196374  0.34982749    -0.74400
O522        O  0.22048173  0.75721752  0.33232676    -0.74300
O523        O  0.25392928  0.78991285  0.33098278    -0.74100
C524        C  0.22302149  0.86638652  0.36655590     0.77700
C525        C  0.14380351  0.87065728  0.28794670     0.78200
C526        C  0.24635123  0.83872542  0.25975334     0.77200
C527        C  0.17188131  0.76518295  0.25993774     0.77500
C528        C  0.14331558  0.78751862  0.36604861     0.78700
C529        C  0.24607396  0.76452481  0.33440501     0.77700
Zn530      Zn  0.81104923  0.18303453  0.27576947     1.49700
Zn531      Zn  0.80667103  0.22785756  0.32382732     1.49400
Zn532      Zn  0.76421904  0.17829121  0.32188578     1.49100
Zn533      Zn  0.82829237  0.16472265  0.33925379     1.49500
O534        O  0.80335902  0.18794955  0.31558985    -1.83500
O535        O  0.82623542  0.21798921  0.25623940    -0.74200
O536        O  0.77149852  0.24555737  0.34034966    -0.74000
O537        O  0.74536974  0.15988866  0.28935868    -0.73500
O538        O  0.81408048  0.24984189  0.28828212    -0.74200
O539        O  0.77525494  0.17314978  0.25542981    -0.73800
O540        O  0.74139182  0.21298114  0.32617978    -0.74400
O541        O  0.80316448  0.14139173  0.36740394    -0.73800
O542        O  0.83857379  0.23415295  0.34896993    -0.74500
O543        O  0.75981718  0.15484964  0.35579710    -0.73900
O544        O  0.85445582  0.19179992  0.36156472    -0.74400
O545        O  0.85247047  0.13841969  0.31294080    -0.74300
O546        O  0.83835970  0.15252509  0.27068959    -0.74100
C547        C  0.82242312  0.24345195  0.26354942     0.77700
C548        C  0.74669922  0.23784205  0.33423358     0.78200
C549        C  0.75122764  0.16404236  0.26353792     0.77200
C550        C  0.77635093  0.14098256  0.37136457     0.77500
C551        C  0.85563617  0.21879592  0.36245662     0.78700
C552        C  0.85336092  0.13665913  0.28594885     0.77700
C553        C  0.99107285  0.97725559  0.85373561     0.80800
N554        N  0.99201041  0.97781378  0.88238644    -0.77500
C555        C  0.00627490  0.99880260  0.89583432     0.83300
N556        N  0.01926599  0.01955826  0.88027893    -0.77400
C557        C  0.01746902  0.01944315  0.85160525     0.83400
N558        N  0.00350556  0.99828095  0.83883928    -0.79200
Zn559      Zn  0.80109199  0.78873594  0.71100744     1.49700
Zn560      Zn  0.85968407  0.80286278  0.69696256     1.49400
Zn561      Zn  0.80729332  0.80607772  0.65308807     1.49100
Zn562      Zn  0.81047341  0.85092378  0.70349933     1.49500
O563        O  0.82155325  0.81450002  0.68968179    -1.83500
O564        O  0.82043149  0.77844579  0.74550216    -0.74200
O565        O  0.87634859  0.78943968  0.65952806    -0.74000
O566        O  0.77535042  0.77699980  0.65567550    -0.73500
O567        O  0.86085848  0.76868263  0.72424936    -0.74200
O568        O  0.79498767  0.75335562  0.68999450    -0.73800
O569        O  0.83970894  0.78948578  0.63052268    -0.74400
O570        O  0.79272409  0.87294145  0.67140290    -0.73800
O571        O  0.87884459  0.83608127  0.71625406    -0.74500
O572        O  0.78997786  0.84123514  0.63703576    -0.73900
O573        O  0.84494808  0.86833037  0.72161032    -0.74400
O574        O  0.77918835  0.84744076  0.73329498    -0.74300
O575        O  0.76434305  0.80467629  0.72192927    -0.74100
C576        C  0.84264511  0.76388402  0.74365716     0.77700
C577        C  0.86540425  0.78356166  0.63569669     0.78200
C578        C  0.77627693  0.75533920  0.67145158     0.77200
C579        C  0.78438200  0.86562982  0.64696803     0.77500
C580        C  0.87011673  0.85981107  0.72585349     0.78700
C581        C  0.76112224  0.82760790  0.73526455     0.77700
Zn582      Zn  0.21646920  0.18654646  0.67521357     1.49700
Zn583      Zn  0.17046593  0.18296630  0.72438317     1.49400
Zn584      Zn  0.16807586  0.22955754  0.67945002     1.49100
Zn585      Zn  0.15366688  0.16575059  0.65987141     1.49500
O586        O  0.17661416  0.19024365  0.68447154    -1.83500
O587        O  0.23801054  0.17822293  0.71010252    -0.74200
O588        O  0.16101216  0.21872197  0.74554762    -0.74000
O589        O  0.20317460  0.25214910  0.67442659    -0.73500
O590        O  0.20568002  0.16901047  0.74320101    -0.74200
O591        O  0.23491935  0.22161939  0.65881586    -0.73800
O592        O  0.14921913  0.24874471  0.71194340    -0.74400
O593        O  0.13246694  0.19168278  0.63095753    -0.73800
O594        O  0.13925172  0.15563130  0.72939385    -0.74500
O595        O  0.14553180  0.23412814  0.64593857    -0.73900
O596        O  0.12603620  0.14279296  0.68620773    -0.74400
O597        O  0.18060391  0.13775270  0.63827601    -0.74300
O598        O  0.22276430  0.15428886  0.65019435    -0.74100
C599        C  0.23130031  0.17126498  0.73518393     0.77700
C600        C  0.15293754  0.24298278  0.73769274     0.78200
C601        C  0.22767861  0.24662325  0.66504479     0.77200
C602        C  0.13261645  0.21867378  0.62856794     0.77500
C603        C  0.12359100  0.14141169  0.71318006     0.78700
C604        C  0.20762130  0.13650086  0.63742324     0.77700
C605        C  0.07310658  0.06424029  0.81481038    -0.01400
C606        C  0.05808779  0.07474678  0.79151352     0.07200
C607        C  0.02905168  0.06960996  0.79014771    -0.07400
C608        C  0.01519308  0.05331315  0.81075243     0.04600
C609        C  0.03042304  0.04157387  0.83336195    -0.14600
C610        C  0.05922968  0.04783595  0.83551964    -0.07900
C611        C  0.07218950  0.09129162  0.76847683     0.05600
C612        C  0.09232462  0.07820057  0.75089184    -0.09100
C613        C  0.10749760  0.09372890  0.73044212     0.00500
C614        C  0.10260002  0.12286948  0.72732243     0.00400
C615        C  0.08152996  0.13560934  0.74398685    -0.12600
C616        C  0.06620386  0.12009237  0.76422843     0.00900
C617        C  0.12940458  0.07983561  0.71433332     0.40200
C618        C  0.04567779  0.13456305  0.78161526     0.36800
C619        C  0.10277029  0.07003714  0.81785087     0.36500
C620        C  0.98519160  0.04895025  0.80822415     0.37300
N621        N  0.14701419  0.06876856  0.70141678    -0.43500
N622        N  0.02917680  0.14606209  0.79557573    -0.43900
N623        N  0.96115067  0.04549809  0.80626100    -0.41300
N624        N  0.12654322  0.07476805  0.82027616    -0.42700
H625        H  0.07115493  0.03890230  0.85266305     0.13400
H626        H  0.01725036  0.07800581  0.77264256     0.09900
H627        H  0.09681148  0.05598947  0.75377063     0.11000
H628        H  0.07809210  0.15813509  0.74221304     0.16800
C629        C  0.93293434  0.92726369  0.83161086    -0.01400
C630        C  0.94208973  0.91968844  0.80421346     0.07200
C631        C  0.96879263  0.92839196  0.79474673    -0.07400
C632        C  0.98574899  0.94559354  0.81137449     0.04600
C633        C  0.97589418  0.95486536  0.83811511    -0.14600
C634        C  0.94985041  0.94470467  0.84833967    -0.07900
C635        C  0.92374800  0.90408273  0.78434975     0.05600
C636        C  0.89936642  0.91716233  0.77439498    -0.09100
C637        C  0.88215457  0.90392980  0.75455859     0.00500
C638        C  0.88919240  0.87670764  0.74425061     0.00400
C639        C  0.91407310  0.86401536  0.75400717    -0.12600
C640        C  0.93120935  0.87737076  0.77377123     0.00900
C641        C  0.85765207  0.91912841  0.74523631     0.40200
C642        C  0.95594925  0.86287293  0.78353548     0.36800
C643        C  0.90629693  0.91737263  0.84290752     0.36500
C644        C  0.01323649  0.95336010  0.80035591     0.37300
N645        N  0.83807092  0.93147464  0.73788077    -0.43500
N646        N  0.97576993  0.85125478  0.79138014    -0.43900
N647        N  0.03524429  0.95956847  0.79150940    -0.41300
N648        N  0.88502079  0.90928018  0.85201795    -0.42700
H649        H  0.94214480  0.95133660  0.86890271     0.13400
H650        H  0.97614051  0.92228318  0.77387920     0.09900
H651        H  0.89390509  0.93802894  0.78200380     0.11000
H652        H  0.91994506  0.84315291  0.74676465     0.16800
C653        C  0.07265492  0.71059551  0.46136589    -0.01400
C654        C  0.07372958  0.71158142  0.43167985     0.07200
C655        C  0.05808297  0.69177197  0.41633351    -0.07400
C656        C  0.04074289  0.67189286  0.43017770     0.04600
C657        C  0.03908984  0.67155948  0.45985102    -0.14600
C658        C  0.05537989  0.69080955  0.47510655    -0.07900
C659        C  0.09100165  0.73321649  0.41647410     0.05600
C660        C  0.12033516  0.73287361  0.41943235    -0.09100
C661        C  0.13748578  0.75212728  0.40480515     0.00500
C662        C  0.12535579  0.77251603  0.38691645     0.00400
C663        C  0.09593750  0.77364364  0.38476527    -0.12600
C664        C  0.07873889  0.75408974  0.39926853     0.00900
C665        C  0.16768122  0.74995578  0.40774584     0.40200
C666        C  0.04861350  0.75548908  0.39583620     0.36800
C667        C  0.08804398  0.73055537  0.47819555     0.36500
C668        C  0.02327870  0.65357983  0.41357369     0.37300
N669        N  0.19185916  0.74816250  0.41002792    -0.43500
N670        N  0.02444963  0.75646007  0.39306798    -0.43900
N671        N  0.00904563  0.63906773  0.40030929    -0.41300
N672        N  0.10040284  0.74655532  0.49165114    -0.42700
H673        H  0.05393291  0.69092301  0.49792802     0.13400
H674        H  0.05893688  0.69228750  0.39350791     0.09900
H675        H  0.12991721  0.71699402  0.43266446     0.11000
H676        H  0.08649992  0.78874016  0.37057035     0.16800
C677        C  0.93574224  0.71655380  0.53244396    -0.01400
C678        C  0.92902971  0.70960328  0.56065983     0.07200
C679        C  0.93772549  0.68336878  0.57132058    -0.07400
C680        C  0.95369570  0.66465541  0.55468009     0.04600
C681        C  0.96070315  0.67185602  0.52656644    -0.14600
C682        C  0.95123753  0.69772701  0.51576141    -0.07900
C683        C  0.91348931  0.72969178  0.57937014     0.05600
C684        C  0.88675304  0.73918904  0.57151929    -0.09100
C685        C  0.87134171  0.75796876  0.58846932     0.00500
C686        C  0.88244992  0.76734292  0.61448126     0.00400
C687        C  0.90966011  0.75831224  0.62180581    -0.12600
C688        C  0.92510817  0.73979509  0.60461232     0.00900
C689        C  0.84413551  0.76676944  0.57845659     0.40200
C690        C  0.95298092  0.73165752  0.61327079     0.36800
C691        C  0.92824156  0.74348458  0.52048261     0.36500
C692        C  0.96436300  0.63935322  0.56760242     0.37300
N693        N  0.82237698  0.77377518  0.57028492    -0.43500
N694        N  0.97529416  0.72508683  0.62023904    -0.43900
N695        N  0.97311490  0.61921422  0.57808899    -0.41300
N696        N  0.92224408  0.76506221  0.51090355    -0.42700
H697        H  0.95661721  0.70364283  0.49425216     0.13400
H698        H  0.93260810  0.67780505  0.59297253     0.09900
H699        H  0.87771886  0.73163324  0.55206212     0.11000
H700        H  0.91883327  0.76520376  0.64142172     0.16800
C701        C  0.93605791  0.04056432  0.22326819    -0.01400
C702        C  0.92646130  0.06742748  0.21528766     0.07200
C703        C  0.93373746  0.07767794  0.18822668    -0.07400
C704        C  0.95015282  0.06159594  0.16928733     0.04600
C705        C  0.96000875  0.03478217  0.17746910    -0.14600
C706        C  0.95245390  0.02466168  0.20452199    -0.07900
C707        C  0.90752794  0.08426990  0.23424397     0.05600
C708        C  0.91604427  0.09153352  0.26165853    -0.09100
C709        C  0.89832980  0.10714269  0.27987536     0.00500
C710        C  0.87173288  0.11623986  0.27047773     0.00400
C711        C  0.86309973  0.10806679  0.24340597    -0.12600
C712        C  0.88051524  0.09239458  0.22546080     0.00900
C713        C  0.90831807  0.11415748  0.30756496     0.40200
C714        C  0.86990836  0.08470945  0.19814521     0.36800
C715        C  0.92897460  0.02848546  0.25042215     0.36500
C716        C  0.95723042  0.07352954  0.14213016     0.37300
N717        N  0.91633563  0.11958307  0.32982175    -0.43500
N718        N  0.86144107  0.07868549  0.17622004    -0.43900
N719        N  0.96286021  0.08312516  0.12033763    -0.41300
N720        N  0.92345118  0.01883985  0.27222502    -0.42700
H721        H  0.95952239  0.00404683  0.21130043     0.13400
H722        H  0.92656704  0.09839287  0.18188906     0.09900
H723        H  0.93672480  0.08524910  0.26873355     0.11000
H724        H  0.84255435  0.11431862  0.23589569     0.16800
C725        C  0.11874183  0.92282467  0.23422930    -0.01400
C726        C  0.08938844  0.92274547  0.23896047     0.07200
C727        C  0.07830234  0.90849359  0.26270411    -0.07400
C728        C  0.09594176  0.89312198  0.28066631     0.04600
C729        C  0.12511158  0.89169188  0.27470616    -0.14600
C730        C  0.13621166  0.90727158  0.25187186    -0.07900
C731        C  0.07025537  0.93774682  0.21937562     0.05600
C732        C  0.06796766  0.92862160  0.19128666    -0.09100
C733        C  0.05116905  0.94321122  0.17187981     0.00500
C734        C  0.03654669  0.96774350  0.18045528     0.00400
C735        C  0.03902967  0.97655313  0.20874882    -0.12600
C736        C  0.05535032  0.96180489  0.22805590     0.00900
C737        C  0.04864458  0.93192173  0.14383362     0.40200
C738        C  0.05695118  0.97220591  0.25656912     0.36800
C739        C  0.13138962  0.93873892  0.21134788     0.36500
C740        C  0.08347709  0.87762568  0.30389617     0.37300
N741        N  0.04659799  0.92267528  0.12141370    -0.43500
N742        N  0.05811934  0.98050496  0.27942719    -0.43900
N743        N  0.07355271  0.86521695  0.32257494    -0.41300
N744        N  0.14141879  0.95161426  0.19304835    -0.42700
H745        H  0.15866694  0.90655786  0.24725642     0.13400
H746        H  0.05574837  0.90876416  0.26674621     0.09900
H747        H  0.07929940  0.90992591  0.18455931     0.11000
H748        H  0.02820711  0.99531015  0.21609035     0.16800
C749        C  0.06040678  0.31749136  0.56670822    -0.06600
C750        C  0.07219051  0.29300087  0.55441554     0.07200
C751        C  0.06975131  0.28877185  0.52543901    -0.07400
C752        C  0.05498231  0.30789029  0.50878108     0.04600
C753        C  0.04174370  0.33166833  0.52121234    -0.14600
C754        C  0.04526273  0.33658560  0.55008132    -0.07900
C755        C  0.08857850  0.27233799  0.57106391     0.05600
C756        C  0.07704421  0.24572333  0.57770068    -0.09100
C757        C  0.09165124  0.22655950  0.59487575     0.00500
C758        C  0.11824069  0.23409876  0.60553856     0.00400
C759        C  0.13035626  0.25996216  0.59698646    -0.12600
C760        C  0.11584008  0.27897137  0.58011772     0.00900
C761        C  0.07836629  0.20015266  0.60231987     0.40200
C762        C  0.12916461  0.30544501  0.57275182     0.36800
C763        C  0.06293933  0.32296859  0.59646273     0.36500
C764        C  0.05403718  0.30271530  0.47882414     0.37300
N765        N  0.06772370  0.17892785  0.60818650    -0.43500
N766        N  0.13976646  0.32668620  0.56687732    -0.43900
N767        N  0.05342976  0.29853307  0.45483254    -0.41300
N768        N  0.06506156  0.32737385  0.62030523    -0.42700
H769        H  0.03510657  0.35459651  0.55989707     0.13400
H770        H  0.07957003  0.27048156  0.51577744     0.09900
H771        H  0.05626260  0.24029882  0.57016517     0.11000
H772        H  0.15106286  0.26590143  0.60439678     0.16800
C773        C  0.95625325  0.28183427  0.43582625    -0.01400
C774        C  0.92966122  0.29023526  0.42637915     0.07200
C775        C  0.92040050  0.31785482  0.43178065    -0.07400
C776        C  0.93718512  0.33698430  0.44674855     0.04600
C777        C  0.96395413  0.32855768  0.45638050    -0.14600
C778        C  0.97305385  0.30085281  0.45045697    -0.07900
C779        C  0.91187810  0.27077819  0.40974647     0.05600
C780        C  0.89938606  0.24710868  0.42279381    -0.09100
C781        C  0.88210680  0.22868723  0.40753150     0.00500
C782        C  0.87730548  0.23390188  0.37873601     0.00400
C783        C  0.89061054  0.25709516  0.36566018    -0.12600
C784        C  0.90779243  0.27538189  0.38081134     0.00900
C785        C  0.86814744  0.20582230  0.42221605     0.40200
C786        C  0.92111385  0.29871888  0.36621944     0.36800
C787        C  0.96700836  0.25390282  0.43029574     0.36500
C788        C  0.92590324  0.36453995  0.45276944     0.37300
N789        N  0.85686964  0.18755934  0.43403302    -0.43500
N790        N  0.93185358  0.31741627  0.35459456    -0.43900
N791        N  0.91683113  0.38660528  0.45776500    -0.41300
N792        N  0.97561304  0.23152081  0.42589431    -0.42700
H793        H  0.99351744  0.29373495  0.45732326     0.13400
H794        H  0.89987806  0.32438028  0.42443991     0.09900
H795        H  0.90265457  0.24341828  0.44505986     0.11000
H796        H  0.88704971  0.26129835  0.34351972     0.16800
C797        C  0.71475880  0.95916506  0.57130330    -0.01400
C798        C  0.70557292  0.93348676  0.58309755     0.07200
C799        C  0.67786286  0.92432774  0.57826683    -0.07400
C800        C  0.65950151  0.94016945  0.56143652     0.04600
C801        C  0.66894810  0.96575472  0.54901165    -0.14600
C802        C  0.69659377  0.97495095  0.55468200    -0.07900
C803        C  0.72519578  0.91576331  0.59966342     0.05600
C804        C  0.73537970  0.92591835  0.62531550    -0.09100
C805        C  0.75534364  0.91075486  0.64070030     0.00500
C806        C  0.76573222  0.88465961  0.63031181     0.00400
C807        C  0.75549334  0.87483167  0.60433960    -0.12600
C808        C  0.73541866  0.88996488  0.58919049     0.00900
C809        C  0.76421734  0.92255862  0.66715122     0.40200
C810        C  0.72591293  0.87877091  0.56269645     0.36800
C811        C  0.74320167  0.96928084  0.57506673     0.36500
C812        C  0.63161169  0.92911080  0.55673236     0.37300
N813        N  0.77116304  0.93214587  0.68835596    -0.43500
N814        N  0.71823466  0.86977030  0.54150204    -0.43900
N815        N  0.60926524  0.92012516  0.55308673    -0.41300
N816        N  0.76599915  0.97731585  0.57809120    -0.42700
H817        H  0.70444843  0.99458116  0.54581488     0.13400
H818        H  0.67070286  0.90454602  0.58740042     0.09900
H819        H  0.72766353  0.94590775  0.63332922     0.11000
H820        H  0.76279727  0.85490200  0.59585959     0.16800
C821        C  0.71303176  0.06686665  0.47411281    -0.01400
C822        C  0.70636751  0.07487804  0.44650575     0.07200
C823        C  0.68059885  0.06620507  0.43511617    -0.07400
C824        C  0.66186809  0.04892518  0.45062235     0.04600
C825        C  0.66890352  0.04017233  0.47814151    -0.14600
C826        C  0.69442671  0.04977238  0.48961374    -0.07900
C827        C  0.72616581  0.09228286  0.42928009     0.05600
C828        C  0.74830055  0.07917577  0.41437543    -0.09100
C829        C  0.76657174  0.09491701  0.39683526     0.00500
C830        C  0.76277208  0.12427460  0.39419139     0.00400
C831        C  0.74136011  0.13739733  0.41018085    -0.12600
C832        C  0.72319611  0.12172293  0.42764215     0.00900
C833        C  0.78756469  0.08025077  0.38023348     0.40200
C834        C  0.70126587  0.13617635  0.44322357     0.36800
C835        C  0.73900002  0.07582208  0.48685716     0.36500
C836        C  0.63648510  0.03935393  0.43721082     0.37300
N837        N  0.80432576  0.06844221  0.36686110    -0.43500
N838        N  0.68371397  0.14774826  0.45575484    -0.43900
N839        N  0.61618035  0.03165299  0.42638017    -0.41300
N840        N  0.75982712  0.08304655  0.49700240    -0.42700
H841        H  0.70013443  0.04361775  0.51079773     0.13400
H842        H  0.67539278  0.07251395  0.41384176     0.09900
H843        H  0.75075794  0.05650690  0.41582505     0.11000
H844        H  0.73814924  0.15994031  0.40818066     0.16800
C845        C  0.31164460  0.07573023  0.56955785    -0.01400
C846        C  0.28731838  0.06313755  0.58170298     0.07200
C847        C  0.28486881  0.03375105  0.58167271    -0.07400
C848        C  0.30533607  0.01695702  0.56848722     0.04600
C849        C  0.32893040  0.02951470  0.55478104    -0.14600
C850        C  0.33222203  0.05889528  0.55616885    -0.07900
C851        C  0.26484972  0.07996749  0.59597819     0.05600
C852        C  0.24376814  0.09318290  0.58012356    -0.09100
C853        C  0.22292950  0.10991106  0.59333041     0.00500
C854        C  0.22323927  0.11365554  0.62279984     0.00400
C855        C  0.24359370  0.09930617  0.63854826    -0.12600
C856        C  0.26412245  0.08253512  0.62549308     0.00900
C857        C  0.20251607  0.12419150  0.57621328     0.40200
C858        C  0.28500203  0.06903871  0.64271393     0.36800
C859        C  0.31572189  0.10585650  0.57039148     0.36500
C860        C  0.30147942  0.98674615  0.56903870     0.37300
N861        N  0.18608657  0.13557712  0.56248836    -0.43500
N862        N  0.30176194  0.05816755  0.65643934    -0.43900
N863        N  0.29839442  0.96254954  0.56950111    -0.41300
N864        N  0.31904790  0.13000824  0.57115341    -0.42700
H865        H  0.35008056  0.06881578  0.54557945     0.13400
H866        H  0.26666554  0.02390942  0.59174822     0.09900
H867        H  0.24395693  0.09088099  0.55739197     0.11000
H868        H  0.24418922  0.10223020  0.66120851     0.16800
C869        C  0.28190382  0.94409036  0.46644061    -0.01400
C870        C  0.29160779  0.93463757  0.44000439     0.07200
C871        C  0.31961850  0.94037241  0.43168048    -0.07400
C872        C  0.33792894  0.95524556  0.44935649     0.04600
C873        C  0.32814761  0.96485454  0.47593552    -0.14600
C874        C  0.30000114  0.95897741  0.48397807    -0.07900
C875        C  0.27331586  0.91710498  0.42176073     0.05600
C876        C  0.24860387  0.92854511  0.41036129    -0.09100
C877        C  0.23087981  0.91219158  0.39334650     0.00500
C878        C  0.23783310  0.88387199  0.38763129     0.00400
C879        C  0.26224215  0.87244115  0.39966229    -0.12600
C880        C  0.27986411  0.88867605  0.41650642     0.00900
C881        C  0.20675672  0.92533512  0.38072228     0.40200
C882        C  0.30446429  0.87563635  0.42842439     0.36800
C883        C  0.25370156  0.93787845  0.47651192     0.36500
C884        C  0.36632729  0.96060509  0.43945385     0.37300
N885        N  0.18745851  0.93589146  0.37049930    -0.43500
N886        N  0.32423675  0.86537888  0.43802733    -0.43900
N887        N  0.38916341  0.96485131  0.43166593    -0.41300
N888        N  0.23111255  0.93285778  0.48456863    -0.42700
H889        H  0.29195580  0.96573752  0.50435537     0.13400
H890        H  0.32723245  0.93299533  0.41134734     0.09900
H891        H  0.24342545  0.95043479  0.41441585     0.11000
H892        H  0.26786694  0.85066889  0.39548657     0.16800
C893        C  0.55959092  0.53519363  0.77470390    -0.01400
C894        C  0.57587976  0.55787454  0.78447365     0.07200
C895        C  0.57419564  0.56509640  0.81315755    -0.07400
C896        C  0.55639145  0.55036758  0.83199246     0.04600
C897        C  0.53942668  0.52798012  0.82208803    -0.14600
C898        C  0.54166493  0.52061319  0.79334968    -0.07900
C899        C  0.59478765  0.57432727  0.76516655     0.05600
C900        C  0.58325762  0.58950936  0.74258949    -0.09100
C901        C  0.60023718  0.60698499  0.72541353     0.00500
C902        C  0.62931318  0.60938024  0.73075386     0.00400
C903        C  0.64091569  0.59324356  0.75256453    -0.12600
C904        C  0.62404314  0.57587364  0.76966147     0.00900
C905        C  0.58701630  0.62388839  0.70404261     0.40200
C906        C  0.63720235  0.56013919  0.79196004     0.36800
C907        C  0.56132997  0.52610702  0.74571767     0.36500
C908        C  0.55552490  0.55939639  0.86100272     0.37300
N909        N  0.57643148  0.63754771  0.68698151    -0.43500
N910        N  0.64772542  0.54760262  0.80988940    -0.43900
N911        N  0.55502535  0.56670262  0.88424900    -0.41300
N912        N  0.56277384  0.51882386  0.72249527    -0.42700
H913        H  0.52926595  0.50330001  0.78519993     0.13400
H914        H  0.58667182  0.58260087  0.82081035     0.09900
H915        H  0.56073032  0.58853998  0.73907151     0.11000
H916        H  0.66325926  0.59496935  0.75689587     0.16800
C917        C  0.42083656  0.43200455  0.82068182    -0.01400
C918        C  0.41507559  0.44002321  0.79267909     0.07200
C919        C  0.42646802  0.46520224  0.78216839    -0.07400
C920        C  0.44477462  0.48150802  0.79829038     0.04600
C921        C  0.45241409  0.47251082  0.82569840    -0.14600
C922        C  0.43943242  0.44817680  0.83690692    -0.07900
C923        C  0.39833936  0.42211532  0.77330066     0.05600
C924        C  0.37251850  0.43204439  0.76333634    -0.09100
C925        C  0.35676364  0.41641162  0.74397113     0.00500
C926        C  0.36708288  0.39021009  0.73372606     0.00400
C927        C  0.39343209  0.38082879  0.74339067    -0.12600
C928        C  0.40890832  0.39637284  0.76293167     0.00900
C929        C  0.33003759  0.42788368  0.73547370     0.40200
C930        C  0.43584751  0.38564428  0.77173598     0.36800
C931        C  0.40791994  0.40728814  0.83312494     0.36500
C932        C  0.45513762  0.50748059  0.78598129     0.37300
N933        N  0.30858984  0.43715688  0.72883582    -0.43500
N934        N  0.45740089  0.37702072  0.77885256    -0.43900
N935        N  0.46338288  0.52825654  0.77601873    -0.41300
N936        N  0.39746363  0.38754495  0.84314381    -0.42700
H937        H  0.44454274  0.44118834  0.85797855     0.13400
H938        H  0.42156164  0.47180331  0.76090240     0.09900
H939        H  0.36454153  0.45209941  0.77091692     0.11000
H940        H  0.40192447  0.36088797  0.73612425     0.16800
C941        C  0.21036375  0.44816929  0.54218034    -0.01400
C942        C  0.19757238  0.42763975  0.55948610     0.07200
C943        C  0.16814991  0.42453883  0.55933551    -0.07400
C944        C  0.15135810  0.44201124  0.54248348     0.04600
C945        C  0.16413347  0.46341252  0.52568285    -0.14600
C946        C  0.19378923  0.46583789  0.52581933    -0.07900
C947        C  0.21494737  0.41018311  0.57849093     0.05600
C948        C  0.22803558  0.42336549  0.60120082    -0.09100
C949        C  0.24651737  0.40861871  0.61853445     0.00500
C950        C  0.25227686  0.37973075  0.61328766     0.00400
C951        C  0.23903583  0.36665911  0.59030158    -0.12600
C952        C  0.22050897  0.38158624  0.57302895     0.00900
C953        C  0.25933411  0.42406815  0.64121316     0.40200
C954        C  0.20788535  0.36736111  0.54948445     0.36800
C955        C  0.24065845  0.45110565  0.54044010     0.36500
C956        C  0.12138194  0.43686671  0.54247232     0.37300
N957        N  0.26947696  0.43655304  0.65938607    -0.43500
N958        N  0.19775018  0.35602224  0.53058241    -0.43900
N959        N  0.09737678  0.43253656  0.54227944    -0.41300
N960        N  0.26492762  0.45327979  0.53898690    -0.42700
H961        H  0.20444821  0.48160806  0.51297792     0.13400
H962        H  0.15830557  0.40848048  0.57249069     0.09900
H963        H  0.22399897  0.44552838  0.60517161     0.11000
H964        H  0.24280195  0.34454646  0.58594053     0.16800
C965        C  0.23747529  0.57952333  0.37874941    -0.01400
C966        C  0.23325241  0.58282601  0.40803931     0.07200
C967        C  0.25100967  0.60122137  0.42282643    -0.07400
C968        C  0.27185035  0.61712828  0.40860436     0.04600
C969        C  0.27542195  0.61435644  0.37922508    -0.14600
C970        C  0.25841038  0.59516585  0.36470903    -0.07900
C971        C  0.21062172  0.56690429  0.42336355     0.05600
C972        C  0.21205440  0.53744927  0.42383405    -0.09100
C973        C  0.19154696  0.52139626  0.43794697     0.00500
C974        C  0.16884483  0.53474825  0.45222198     0.00400
C975        C  0.16681126  0.56424920  0.45104230    -0.12600
C976        C  0.18754897  0.58037909  0.43682769     0.00900
C977        C  0.19442098  0.49108502  0.43756871     0.40200
C978        C  0.18479605  0.61065993  0.43628863     0.36800
C979        C  0.21932570  0.56164671  0.36233268     0.36500
C980        C  0.28790490  0.63760706  0.42411249     0.37300
N981        N  0.19673250  0.46681418  0.43738138    -0.43500
N982        N  0.18269960  0.63494882  0.43581651    -0.43900
N983        N  0.30074757  0.65415776  0.43641497    -0.41300
N984        N  0.20470214  0.54737495  0.34922484    -0.42700
H985        H  0.26039997  0.59364035  0.34195885     0.13400
H986        H  0.24805799  0.60370897  0.44537791     0.09900
H987        H  0.22955098  0.52692683  0.41332874     0.11000
H988        H  0.14970404  0.57475025  0.46216987     0.16800
C989        C  0.57691545  0.81847409  0.57504463    -0.01400
C990        C  0.56867222  0.79074725  0.58246059     0.07200
C991        C  0.54173995  0.78136543  0.57536537    -0.07400
C992        C  0.52344754  0.79854753  0.56016726     0.04600
C993        C  0.53213693  0.82583838  0.55123729    -0.14600
C994        C  0.55871194  0.83572044  0.55948192    -0.07900
C995        C  0.58729404  0.77140809  0.59847304     0.05600
C996        C  0.59311856  0.77771965  0.62655322    -0.09100
C997        C  0.61033394  0.76016791  0.64255343     0.00500
C998        C  0.62233866  0.73555072  0.63045549     0.00400
C999        C  0.61567555  0.72865483  0.60258499    -0.12600
C1000       C  0.59835049  0.74639575  0.58655561     0.00900
C1001       C  0.61507387  0.76787245  0.67155730     0.40200
C1002       C  0.59309678  0.73918650  0.55758088     0.36800
C1003       C  0.60430814  0.82928690  0.58234785     0.36500
C1004       C  0.49564384  0.78764205  0.55450939     0.37300
N1005       N  0.61891347  0.77406729  0.69475872    -0.43500
N1006       N  0.58888911  0.73351235  0.53431996    -0.43900
N1007       N  0.47338516  0.77885996  0.55002221    -0.41300
N1008       N  0.62624825  0.83797447  0.58825227    -0.42700
H1009       H  0.56573499  0.85651027  0.55285812     0.13400
H1010       H  0.53495496  0.76042732  0.58181387     0.09900
H1011       H  0.58412422  0.79652287  0.63603058     0.11000
H1012       H  0.62491086  0.71006178  0.59295960     0.16800
C1013       C  0.42529250  0.80928991  0.45026204    -0.01400
C1014       C  0.43823652  0.78497882  0.43888549     0.07200
C1015       C  0.46709392  0.78091264  0.44282358    -0.07400
C1016       C  0.48292384  0.79998405  0.45862276     0.04600
C1017       C  0.46993545  0.82402138  0.47083077    -0.14600
C1018       C  0.44116311  0.82862143  0.46602960    -0.07900
C1019       C  0.42270799  0.76463215  0.42092120     0.05600
C1020       C  0.42653968  0.76640180  0.39169020    -0.09100
C1021       C  0.41146837  0.74888348  0.37361745     0.00500
C1022       C  0.39221608  0.72877946  0.38466868     0.00400
C1023       C  0.38944217  0.72588795  0.41403652    -0.12600
C1024       C  0.40453552  0.74367961  0.43220159     0.00900
C1025       C  0.41552884  0.75244369  0.34359401     0.40200
C1026       C  0.40076270  0.74045068  0.46224896     0.36800
C1027       C  0.39577144  0.81471793  0.44596380     0.36500
C1028       C  0.51265765  0.79447553  0.46164422     0.37300
N1029       N  0.41865855  0.75526880  0.31953397    -0.43500
N1030       N  0.39779153  0.73782286  0.48634987    -0.43900
N1031       N  0.53646113  0.78996773  0.46402386    -0.41300
N1032       N  0.37208098  0.81894653  0.44244762    -0.42700
H1033       H  0.43084342  0.84675132  0.47543343     0.13400
H1034       H  0.47729685  0.76264675  0.43352390     0.09900
H1035       H  0.44083690  0.78211224  0.38292354     0.11000
H1036       H  0.37445859  0.71080640  0.42274475     0.16800
C1037       C  0.45384210  0.21453574  0.56150181    -0.01400
C1038       C  0.42752050  0.20601472  0.57253407     0.07200
C1039       C  0.41793683  0.17848770  0.56727828    -0.07400
C1040       C  0.43420304  0.15951830  0.55109878     0.04600
C1041       C  0.46054441  0.16822314  0.53965075    -0.14600
C1042       C  0.46999718  0.19578001  0.54547220    -0.07900
C1043       C  0.40956324  0.22604090  0.58881558     0.05600
C1044       C  0.38577487  0.23756487  0.57608652    -0.09100
C1045       C  0.36885309  0.25738723  0.59020394     0.00500
C1046       C  0.37558726  0.26603574  0.61799531     0.00400
C1047       C  0.39992237  0.25469675  0.63033558    -0.12600
C1048       C  0.41672893  0.23489689  0.61610407     0.00900
C1049       C  0.34480210  0.26821882  0.57538059     0.40200
C1050       C  0.44088961  0.22337054  0.63019021     0.36800
C1051       C  0.46434697  0.24281680  0.56556559     0.36500
C1052       C  0.42279178  0.13185320  0.54578007     0.37300
N1053       N  0.32554269  0.27675493  0.56337799    -0.43500
N1054       N  0.46026288  0.21409887  0.64143854    -0.43900
N1055       N  0.41350929  0.10969721  0.54161281    -0.41300
N1056       N  0.47275920  0.26547337  0.56879273    -0.42700
H1057       H  0.49013960  0.20306056  0.53714731     0.13400
H1058       H  0.39756092  0.17190659  0.57565379     0.09900
H1059       H  0.38050857  0.23113503  0.55487846     0.11000
H1060       H  0.40551466  0.26062180  0.65158220     0.16800
C1061       C  0.55054761  0.18229587  0.42096799    -0.01400
C1062       C  0.56552911  0.20494084  0.43315608     0.07200
C1063       C  0.56497989  0.20784437  0.46254024    -0.07400
C1064       C  0.54969741  0.18907967  0.47968304     0.04600
C1065       C  0.53417122  0.16679808  0.46756256    -0.14600
C1066       C  0.53516316  0.16337132  0.43819884    -0.07900
C1067       C  0.58204304  0.22578364  0.41586155     0.05600
C1068       C  0.56820757  0.24274761  0.39611412    -0.09100
C1069       C  0.58319385  0.26220986  0.37923951     0.00500
C1070       C  0.61279925  0.26481831  0.38171505     0.00400
C1071       C  0.62631172  0.24879734  0.40250344    -0.12600
C1072       C  0.61130566  0.22953927  0.41945948     0.00900
C1073       C  0.56752342  0.27974230  0.36016121     0.40200
C1074       C  0.62664097  0.21316952  0.43979967     0.36800
C1075       C  0.55059859  0.17812345  0.39086289     0.36500
C1076       C  0.55047885  0.19306031  0.50983026     0.37300
N1077       N  0.55492682  0.29394512  0.34503418    -0.43500
N1078       N  0.63881888  0.20016550  0.45627235    -0.43900
N1079       N  0.55113529  0.19620186  0.53397918    -0.41300
N1080       N  0.55057721  0.17486947  0.36671147    -0.42700
H1081       H  0.52307641  0.14657719  0.42863972     0.13400
H1082       H  0.57636961  0.22509835  0.47215512     0.09900
H1083       H  0.54557002  0.24081369  0.39393029     0.11000
H1084       H  0.64895042  0.25045216  0.40484148     0.16800
C1085       C  0.81391638  0.58211923  0.54695282    -0.01400
C1086       C  0.78953074  0.57053176  0.55989155     0.07200
C1087       C  0.78343392  0.54194231  0.55628177    -0.07400
C1088       C  0.80108865  0.52481968  0.53990043     0.04600
C1089       C  0.82553548  0.53631418  0.52677982    -0.14600
C1090       C  0.83180139  0.56494393  0.53064874    -0.07900
C1091       C  0.77193055  0.58695094  0.57997041     0.05600
C1092       C  0.74564359  0.59759324  0.57185402    -0.09100
C1093       C  0.72886182  0.61326783  0.59082585     0.00500
C1094       C  0.73846749  0.61830941  0.61843017     0.00400
C1095       C  0.76441939  0.60658492  0.62649641    -0.12600
C1096       C  0.78102072  0.59114227  0.60766290     0.00900
C1097       C  0.70259789  0.62472113  0.58109677     0.40200
C1098       C  0.80734130  0.57955980  0.61723745     0.36800
C1099       C  0.82067702  0.61163296  0.54986684     0.36500
C1100       C  0.79402154  0.49528977  0.53755938     0.37300
N1101       N  0.68152451  0.63388697  0.57327217    -0.43500
N1102       N  0.82841810  0.57012771  0.62471548    -0.43900
N1103       N  0.78835386  0.47164060  0.53567923    -0.41300
N1104       N  0.82599302  0.63532615  0.55212941    -0.42700
H1105       H  0.85020189  0.57406901  0.52026835     0.13400
H1106       H  0.76506476  0.53286348  0.56678178     0.09900
H1107       H  0.73845747  0.59398550  0.55058389     0.11000
H1108       H  0.77205343  0.60968310  0.64769546     0.16800
C1109       C  0.76525074  0.39150356  0.40556170    -0.01400
C1110       C  0.76919088  0.42006763  0.39831594     0.07200
C1111       C  0.75299681  0.43171225  0.37668867    -0.07400
C1112       C  0.73319616  0.41540498  0.36224080     0.04600
C1113       C  0.72948923  0.38655841  0.36915238    -0.14600
C1114       C  0.74561330  0.37513042  0.39108837    -0.07900
C1115       C  0.78866460  0.43853393  0.41436241     0.05600
C1116       C  0.81774994  0.43290416  0.41446359    -0.09100
C1117       C  0.83626704  0.44899785  0.43090005     0.00500
C1118       C  0.82559494  0.47106058  0.44802798     0.00400
C1119       C  0.79651542  0.47713966  0.44674468    -0.12600
C1120       C  0.77823882  0.46127190  0.43030703     0.00900
C1121       C  0.86585699  0.44219926  0.42968206     0.40200
C1122       C  0.74859506  0.46818284  0.43103846     0.36800
C1123       C  0.78074812  0.37860921  0.42814077     0.36500
C1124       C  0.71662085  0.42913793  0.34098242     0.37300
N1125       N  0.88962248  0.43689020  0.42839404    -0.43500
N1126       N  0.72487718  0.47379699  0.43154896    -0.43900
N1127       N  0.70331916  0.44026103  0.32402467    -0.41300
N1128       N  0.79318825  0.36826200  0.44620701    -0.42700
H1129       H  0.74336033  0.35306347  0.39669273     0.13400
H1130       H  0.75568805  0.45378320  0.37125353     0.09900
H1131       H  0.82595917  0.41569595  0.40180986     0.11000
H1132       H  0.78757885  0.49422815  0.45904493     0.16800
C1133       C  0.42226801  0.55708307  0.18643975    -0.01400
C1134       C  0.43763627  0.57311180  0.20601750     0.07200
C1135       C  0.46711908  0.57365015  0.20403945    -0.07400
C1136       C  0.48140274  0.55772692  0.18360387     0.04600
C1137       C  0.46611951  0.54125793  0.16431188    -0.14600
C1138       C  0.43657600  0.54141049  0.16567125    -0.07900
C1139       C  0.42338451  0.59074074  0.22774382     0.05600
C1140       C  0.41040590  0.57807547  0.25142304    -0.09100
C1141       C  0.39539510  0.59437024  0.27129965     0.00500
C1142       C  0.39327439  0.62377737  0.26745659     0.00400
C1143       C  0.40742793  0.63635537  0.24438396    -0.12600
C1144       C  0.42228371  0.62019804  0.22464447     0.00900
C1145       C  0.38080228  0.58031459  0.29421606     0.40200
C1146       C  0.43491093  0.63412768  0.20047480     0.36800
C1147       C  0.39187102  0.55620287  0.18750306     0.36500
C1148       C  0.51183978  0.55820732  0.18309849     0.37300
N1149       N  0.36905819  0.56908648  0.31260356    -0.43500
N1150       N  0.44498314  0.64517544  0.18103382    -0.43900
N1151       N  0.53622503  0.55856012  0.18270110    -0.41300
N1152       N  0.36750072  0.55546008  0.18841628    -0.42700
H1153       H  0.42473972  0.52825233  0.15139112     0.13400
H1154       H  0.47898664  0.58625891  0.21877942     0.09900
H1155       H  0.41137859  0.55537942  0.25393686     0.11000
H1156       H  0.40579982  0.65892550  0.24105471     0.16800
C1157       C  0.52988586  0.43739693  0.21180839    -0.01400
C1158       C  0.55359699  0.42247494  0.20207908     0.07200
C1159       C  0.56110026  0.42370802  0.17336601    -0.07400
C1160       C  0.54586193  0.44046888  0.15449109     0.04600
C1161       C  0.52268113  0.45650883  0.16448367    -0.14600
C1162       C  0.51463703  0.45394276  0.19311276    -0.07900
C1163       C  0.57148695  0.40667230  0.22198941     0.05600
C1164       C  0.56080563  0.38230212  0.23505986    -0.09100
C1165       C  0.57697832  0.36709084  0.25431672     0.00500
C1166       C  0.60477161  0.37604083  0.26042675     0.00400
C1167       C  0.61476137  0.40128471  0.24810564    -0.12600
C1168       C  0.59839597  0.41657557  0.22919750     0.00900
C1169       C  0.56420131  0.34270967  0.26757244     0.40200
C1170       C  0.60944015  0.44267463  0.21781413     0.36800
C1171       C  0.52172226  0.43729855  0.24124761     0.36500
C1172       C  0.55526584  0.44151581  0.12547202     0.37300
N1173       N  0.55382218  0.32326516  0.27824741    -0.43500
N1174       N  0.61818962  0.46367160  0.20880505    -0.43900
N1175       N  0.56282867  0.44217153  0.10219713    -0.41300
N1176       N  0.51531772  0.43725876  0.26485885    -0.42700
H1177       H  0.49672166  0.46561363  0.20133327     0.13400
H1178       H  0.57932172  0.41203379  0.16584833     0.09900
H1179       H  0.53970135  0.37517160  0.23016909     0.11000
H1180       H  0.63576059  0.40891323  0.25264909     0.16800
C1181       C  0.44630153  0.04629269  0.72594630    -0.01400
C1182       C  0.43386677  0.07101634  0.71564975     0.07200
C1183       C  0.43927444  0.07921869  0.68761899    -0.07400
C1184       C  0.45664737  0.06296503  0.66976694     0.04600
C1185       C  0.46898384  0.03784631  0.68000160    -0.14600
C1186       C  0.46369376  0.03017671  0.70832078    -0.07900
C1187       C  0.41404489  0.08766983  0.73351247     0.05600
C1188       C  0.42416872  0.10274015  0.75676304    -0.09100
C1189       C  0.40586650  0.11882399  0.77380012     0.00500
C1190       C  0.37684799  0.11976409  0.76769689     0.00400
C1191       C  0.36677846  0.10392590  0.74490904    -0.12600
C1192       C  0.38500102  0.08801585  0.72792210     0.00900
C1193       C  0.41762462  0.13562014  0.79607005     0.40200
C1194       C  0.37344713  0.07213672  0.70485773     0.36800
C1195       C  0.44056723  0.03640639  0.75425281     0.36500
C1196       C  0.46180090  0.07301865  0.64143396     0.37300
N1197       N  0.42706327  0.14919544  0.81384424    -0.43500
N1198       N  0.36430885  0.05936613  0.68635229    -0.43900
N1199       N  0.46589919  0.08118805  0.61874867    -0.41300
N1200       N  0.43583321  0.02848538  0.77690309    -0.42700
H1201       H  0.47274870  0.01112440  0.71683190     0.13400
H1202       H  0.42973407  0.09833639  0.67964614     0.09900
H1203       H  0.44654140  0.10242161  0.76119629     0.11000
H1204       H  0.34452587  0.10451963  0.73991915     0.16800
C1205       C  0.58436264  0.93986381  0.68334601    -0.01400
C1206       C  0.57556892  0.92944162  0.70988237     0.07200
C1207       C  0.54794484  0.93418177  0.71926942    -0.07400
C1208       C  0.52924703  0.94992820  0.70313175     0.04600
C1209       C  0.53829358  0.96169987  0.67706536    -0.14600
C1210       C  0.56572899  0.95591469  0.66715136    -0.07900
C1211       C  0.59439192  0.91277422  0.72808077     0.05600
C1212       C  0.61046133  0.92654517  0.74852793    -0.09100
C1213       C  0.62728968  0.91115446  0.76715839     0.00500
C1214       C  0.62770793  0.88144389  0.76569541     0.00400
C1215       C  0.61133334  0.86784602  0.74527809    -0.12600
C1216       C  0.59497581  0.88320271  0.72645427     0.00900
C1217       C  0.64313049  0.92621534  0.78805822     0.40200
C1218       C  0.57919459  0.86820990  0.70541471     0.36800
C1219       C  0.61240107  0.93445027  0.67252674     0.36500
C1220       C  0.50062574  0.95269840  0.71348683     0.37300
N1221       N  0.65577662  0.93831061  0.80485323    -0.43500
N1222       N  0.56668033  0.85617429  0.68847828    -0.43900
N1223       N  0.47770782  0.95453263  0.72192546    -0.41300
N1224       N  0.63486268  0.93000571  0.66385391    -0.42700
H1225       H  0.57289873  0.96461162  0.64713182     0.13400
H1226       H  0.54094659  0.92540984  0.73933400     0.09900
H1227       H  0.60968958  0.94933626  0.75001495     0.11000
H1228       H  0.61188422  0.84506153  0.74347720     0.16800
C1229       C  0.76498231  0.07547503  0.11423067    -0.01400
C1230       C  0.77514177  0.08445211  0.08769763     0.07200
C1231       C  0.76471978  0.10949212  0.07618295    -0.07400
C1232       C  0.74479347  0.12592848  0.09087201     0.04600
C1233       C  0.73474554  0.11731466  0.11790874    -0.14600
C1234       C  0.74504021  0.09174098  0.12898533    -0.07900
C1235       C  0.79513239  0.06698687  0.07077244     0.05600
C1236       C  0.78440260  0.04404419  0.05595968    -0.09100
C1237       C  0.80190137  0.02720747  0.03906188     0.00500
C1238       C  0.83121747  0.03342424  0.03630433     0.00400
C1239       C  0.84201186  0.05612737  0.05194505    -0.12600
C1240       C  0.82427353  0.07279700  0.06908554     0.00900
C1241       C  0.78883710  0.00338044  0.02549097     0.40200
C1242       C  0.83639730  0.09552951  0.08505129     0.36800
C1243       C  0.77525381  0.04989461  0.12697641     0.36500
C1244       C  0.73542538  0.15153992  0.07752180     0.37300
N1245       N  0.77823463  0.98434670  0.01467006    -0.43500
N1246       N  0.84612701  0.11366006  0.09799119    -0.43900
N1247       N  0.72802742  0.17207213  0.06673262    -0.41300
N1248       N  0.78359716  0.02943074  0.13716913    -0.42700
H1249       H  0.73806772  0.08459812  0.14964814     0.13400
H1250       H  0.77217935  0.11619176  0.05551574     0.09900
H1251       H  0.76204081  0.03926946  0.05762767     0.11000
H1252       H  0.86430320  0.06116645  0.05054117     0.16800
C1253       C  0.78778783  0.91218076  0.87987666    -0.01400
C1254       C  0.78814597  0.91185815  0.90949911     0.07200
C1255       C  0.76875945  0.89475712  0.92429048    -0.07400
C1256       C  0.74905161  0.87814822  0.90993530     0.04600
C1257       C  0.74839003  0.87873767  0.88015281    -0.14600
C1258       C  0.76800381  0.89590550  0.86554930    -0.07900
C1259       C  0.80741791  0.93057884  0.92534850     0.05600
C1260       C  0.80223589  0.95964256  0.92529818    -0.09100
C1261       C  0.81868220  0.97801649  0.94124105     0.00500
C1262       C  0.84077445  0.96734310  0.95779475     0.00400
C1263       C  0.84698900  0.93843827  0.95658708    -0.12600
C1264       C  0.83046169  0.92003258  0.94054841     0.00900
C1265       C  0.81269356  0.00781821  0.93997917     0.40200
C1266       C  0.83747640  0.89046679  0.93993361     0.36800
C1267       C  0.80803332  0.92853510  0.86372764     0.36500
C1268       C  0.72935139  0.86140381  0.92630993     0.37300
N1269       N  0.80800371  0.03171041  0.93882444    -0.43500
N1270       N  0.84318032  0.86678072  0.93930364    -0.43900
N1271       N  0.71355927  0.84799834  0.93947120    -0.41300
N1272       N  0.82432972  0.94156324  0.85080730    -0.42700
H1273       H  0.76841873  0.89613126  0.84270526     0.13400
H1274       H  0.76881681  0.89468172  0.94713158     0.09900
H1275       H  0.78495041  0.96792309  0.91310467     0.11000
H1276       H  0.86399459  0.93005319  0.96908205     0.16800
C1277       C  0.23526644  0.93036211  0.13197289    -0.01400
C1278       C  0.23046541  0.92664108  0.10301080     0.07200
C1279       C  0.24657978  0.90698817  0.08791317    -0.07400
C1280       C  0.26664002  0.89031342  0.10135754     0.04600
C1281       C  0.27076708  0.89298932  0.13075319    -0.14600
C1282       C  0.25527827  0.91360724  0.14560134    -0.07900
C1283       C  0.20959960  0.94370446  0.08749691     0.05600
C1284       C  0.21673478  0.97133746  0.07998976    -0.09100
C1285       C  0.19955520  0.98702504  0.06215121     0.00500
C1286       C  0.17460298  0.97493276  0.05126813     0.00400
C1287       C  0.16662470  0.94779506  0.06025644    -0.12600
C1288       C  0.18398219  0.93211392  0.07813983     0.00900
C1289       C  0.20812750  0.01555862  0.05560207     0.40200
C1290       C  0.17541757  0.90401645  0.08629492     0.36800
C1291       C  0.21918218  0.95053154  0.14822489     0.36500
C1292       C  0.28272911  0.87080669  0.08427877     0.37300
N1293       N  0.21514042  0.03840970  0.05052601    -0.43500
N1294       N  0.16856259  0.88151938  0.09294832    -0.43900
N1295       N  0.29558715  0.85516757  0.07057444    -0.41300
N1296       N  0.20622874  0.96669652  0.16119747    -0.42700
H1297       H  0.25792133  0.91589695  0.16812973     0.13400
H1298       H  0.24338777  0.90464848  0.06545331     0.09900
H1299       H  0.23626248  0.98038770  0.08746472     0.11000
H1300       H  0.14748131  0.93834472  0.05235075     0.16800
C1301       C  0.22268986  0.05714214  0.95780803    -0.01400
C1302       C  0.21198262  0.07059795  0.93387037     0.07200
C1303       C  0.18348633  0.06654456  0.92710514    -0.07400
C1304       C  0.16561463  0.04963291  0.94406597     0.04600
C1305       C  0.17630986  0.03627882  0.96843943    -0.14600
C1306       C  0.20511987  0.04014421  0.97451213    -0.07900
C1307       C  0.23015309  0.08977832  0.91650301     0.05600
C1308       C  0.25379270  0.07892439  0.90198412    -0.09100
C1309       C  0.27153931  0.09657600  0.88579614     0.00500
C1310       C  0.26579836  0.12566005  0.88409670     0.00400
C1311       C  0.24250273  0.13651021  0.89916294    -0.12600
C1312       C  0.22481219  0.11893649  0.91525785     0.00900
C1313       C  0.29419938  0.08411912  0.86955679     0.40200
C1314       C  0.20130749  0.13125470  0.93039505     0.36800
C1315       C  0.25144911  0.06146662  0.96642651     0.36500
C1316       C  0.13669753  0.04632277  0.93561995     0.37300
N1317       N  0.31229431  0.07417965  0.85638249    -0.43500
N1318       N  0.18237948  0.14087886  0.94257971    -0.43900
N1319       N  0.11354558  0.04373874  0.92869909    -0.41300
N1320       N  0.27446301  0.06507107  0.97332801    -0.42700
H1321       H  0.21421657  0.03025826  0.99281694     0.13400
H1322       H  0.17514994  0.07680898  0.90857563     0.09900
H1323       H  0.25804068  0.05649903  0.90287871     0.11000
H1324       H  0.23765888  0.15879829  0.89771349     0.16800
C1325       C  0.56512900  0.03358600  0.29373780    -0.01400
C1326       C  0.57167233  0.06168580  0.30052345     0.07200
C1327       C  0.56238755  0.07260561  0.32654683    -0.07400
C1328       C  0.54677206  0.05589834  0.34574887     0.04600
C1329       C  0.54029453  0.02760496  0.33895891    -0.14600
C1330       C  0.54997146  0.01687454  0.31291083    -0.07900
C1331       C  0.58779525  0.07991214  0.28039368     0.05600
C1332       C  0.57422590  0.10258724  0.26740288    -0.09100
C1333       C  0.58845889  0.11973257  0.24764659     0.00500
C1334       C  0.61714896  0.11437783  0.24060109     0.00400
C1335       C  0.63041170  0.09125448  0.25351444    -0.12600
C1336       C  0.61614328  0.07426880  0.27324766     0.00900
C1337       C  0.57282323  0.14242958  0.23500243     0.40200
C1338       C  0.63128720  0.05157057  0.28649936     0.36800
C1339       C  0.57275274  0.02171877  0.26669087     0.36500
C1340       C  0.53655628  0.06879457  0.37141920     0.37300
N1341       N  0.56017120  0.16059025  0.22495449    -0.43500
N1342       N  0.64336114  0.03333477  0.29709871    -0.43900
N1343       N  0.52832428  0.07926537  0.39192705    -0.41300
N1344       N  0.57879843  0.01223540  0.24500325    -0.42700
H1345       H  0.54523175  0.99529532  0.30710508     0.13400
H1346       H  0.56712791  0.09434473  0.33172852     0.09900
H1347       H  0.55229122  0.10676786  0.27258854     0.11000
H1348       H  0.65238536  0.08677485  0.24887406     0.16800
C1349       C  0.41407054  0.91706763  0.25862636    -0.01400
C1350       C  0.42994249  0.90226484  0.27872252     0.07200
C1351       C  0.43062191  0.87276906  0.27776281    -0.07400
C1352       C  0.41490135  0.85786107  0.25794351     0.04600
C1353       C  0.39788949  0.87261792  0.23853560    -0.14600
C1354       C  0.39813243  0.90223766  0.23891907    -0.07900
C1355       C  0.44531756  0.91722238  0.30132584     0.05600
C1356       C  0.43001952  0.93340426  0.32101019    -0.09100
C1357       C  0.44388799  0.94979998  0.34109414     0.00500
C1358       C  0.47355861  0.95000483  0.34169813     0.00400
C1359       C  0.48876686  0.93282383  0.32287888    -0.12600
C1360       C  0.47494561  0.91634594  0.30292300     0.00900
C1361       C  0.42739401  0.96798331  0.35917912     0.40200
C1362       C  0.49168193  0.89991783  0.28337796     0.36800
C1363       C  0.41384186  0.94749177  0.25784408     0.36500
C1364       C  0.41517483  0.82745677  0.25951955     0.37300
N1365       N  0.41419242  0.98274658  0.37351346    -0.43500
N1366       N  0.50510717  0.88668506  0.26777978    -0.43900
N1367       N  0.41539995  0.80310314  0.26088085    -0.41300
N1368       N  0.41373998  0.97187229  0.25724280    -0.42700
H1369       H  0.38535071  0.91386349  0.22414552     0.13400
H1370       H  0.44279930  0.86131853  0.29318274     0.09900
H1371       H  0.40720046  0.93394331  0.32002988     0.11000
H1372       H  0.51163256  0.93312912  0.32309028     0.16800
C1373       C  0.58216335  0.67864419  0.94132796    -0.01400
C1374       C  0.57278125  0.70220312  0.92595065     0.07200
C1375       C  0.54393035  0.70787235  0.92468280    -0.07400
C1376       C  0.52437267  0.69101981  0.93919909     0.04600
C1377       C  0.53366447  0.66795703  0.95553242    -0.14600
C1378       C  0.56256708  0.66165086  0.95594448    -0.07900
C1379       C  0.59241165  0.72101833  0.91030445     0.05600
C1380       C  0.59891564  0.71472888  0.88219246    -0.09100
C1381       C  0.61559589  0.73300901  0.86586806     0.00500
C1382       C  0.62632189  0.75807489  0.87784066     0.00400
C1383       C  0.62017390  0.76410407  0.90618908    -0.12600
C1384       C  0.60294342  0.74600644  0.92232237     0.00900
C1385       C  0.62211183  0.72501974  0.83715180     0.40200
C1386       C  0.59579538  0.75371398  0.95092526     0.36800
C1387       C  0.61174469  0.67187996  0.94275848     0.36500
C1388       C  0.49482807  0.69747813  0.93631074     0.37300
N1389       N  0.62727955  0.71853607  0.81416894    -0.43500
N1390       N  0.58990281  0.75996573  0.97380281    -0.43900
N1391       N  0.47119371  0.70269327  0.93375720    -0.41300
N1392       N  0.63545371  0.66642250  0.94393044    -0.42700
H1393       H  0.56992474  0.64405153  0.96844475     0.13400
H1394       H  0.53669344  0.72562668  0.91230956     0.09900
H1395       H  0.59066126  0.69558255  0.87291396     0.11000
H1396       H  0.62838487  0.78321631  0.91554900     0.16800
C1397       C  0.43111434  0.71593035  0.02769587    -0.01400
C1398       C  0.42448371  0.71036216  0.05615418     0.07200
C1399       C  0.43316359  0.68476655  0.06815530    -0.07400
C1400       C  0.44902322  0.66517117  0.05246908     0.04600
C1401       C  0.45639134  0.67106946  0.02410630    -0.14600
C1402       C  0.44683732  0.69639988  0.01201921    -0.07900
C1403       C  0.40938283  0.73139175  0.07399052     0.05600
C1404       C  0.38097049  0.73723647  0.06889105    -0.09100
C1405       C  0.36565891  0.75580089  0.08622461     0.00500
C1406       C  0.37888931  0.76894169  0.10945004     0.00400
C1407       C  0.40778763  0.76391979  0.11354347    -0.12600
C1408       C  0.42298530  0.74546294  0.09609577     0.00900
C1409       C  0.33618668  0.75976422  0.08018864     0.40200
C1410       C  0.45261958  0.74137451  0.10116991     0.36800
C1411       C  0.42325090  0.74218878  0.01455526     0.36500
C1412       C  0.45897804  0.64022723  0.06658379     0.37300
N1413       N  0.31258077  0.76288943  0.07526255    -0.43500
N1414       N  0.47639577  0.73815291  0.10514633    -0.43900
N1415       N  0.46701672  0.62030097  0.07800863    -0.41300
N1416       N  0.41701275  0.76328054  0.00409738    -0.42700
H1417       H  0.45229091  0.70136220  0.99032233     0.13400
H1418       H  0.42810484  0.68042687  0.09009478     0.09900
H1419       H  0.37053573  0.72668819  0.05165895     0.11000
H1420       H  0.41854299  0.77399816  0.13084026     0.16800
C1421       C  0.54093289  0.28307162  0.05734436    -0.01400
C1422       C  0.56322506  0.29386144  0.07324691     0.07200
C1423       C  0.56989704  0.32265306  0.07110354    -0.07400
C1424       C  0.55505330  0.34057181  0.05282054     0.04600
C1425       C  0.53305551  0.32956813  0.03608720    -0.14600
C1426       C  0.52615669  0.30074761  0.03917770    -0.07900
C1427       C  0.58069039  0.27473028  0.09071494     0.05600
C1428       C  0.60313705  0.26040351  0.07778147    -0.09100
C1429       C  0.61933614  0.24090406  0.09276535     0.00500
C1430       C  0.61314350  0.23523722  0.12160173     0.00400
C1431       C  0.59013665  0.24941888  0.13427944    -0.12600
C1432       C  0.57405745  0.26898616  0.11915658     0.00900
C1433       C  0.64203333  0.22710800  0.07768720     0.40200
C1434       C  0.55090323  0.28304500  0.13323443     0.36800
C1435       C  0.53317518  0.25365446  0.05897692     0.36500
C1436       C  0.56365131  0.36972379  0.05111922     0.37300
N1437       N  0.66025097  0.21616716  0.06552893    -0.43500
N1438       N  0.53235667  0.29435246  0.14450849    -0.43900
N1439       N  0.57068175  0.39307336  0.04989923    -0.41300
N1440       N  0.52703096  0.23007188  0.06032589    -0.42700
H1441       H  0.50920200  0.29164104  0.02710856     0.13400
H1442       H  0.58713675  0.33101142  0.08332516     0.09900
H1443       H  0.60792706  0.26440761  0.05572074     0.11000
H1444       H  0.58501126  0.24579753  0.15631662     0.16800
C1445       C  0.42384907  0.31580781  0.93759930    -0.01400
C1446       C  0.43569289  0.29276933  0.92289632     0.07200
C1447       C  0.46483689  0.28827852  0.92413001    -0.07400
C1448       C  0.48205309  0.30586811  0.94031613     0.04600
C1449       C  0.47020016  0.32884516  0.95525361    -0.14600
C1450       C  0.44113290  0.33377990  0.95334091    -0.07900
C1451       C  0.41807649  0.27366515  0.90548461     0.05600
C1452       C  0.41416938  0.28033938  0.87709179    -0.09100
C1453       C  0.39651575  0.26397110  0.86022748     0.00500
C1454       C  0.38217390  0.24022345  0.87173213     0.00400
C1455       C  0.38713850  0.23280982  0.89991197    -0.12600
C1456       C  0.40482708  0.24939895  0.91681163     0.00900
C1457       C  0.39375429  0.27192450  0.83099545     0.40200
C1458       C  0.40861328  0.24163429  0.94590733     0.36800
C1459       C  0.39388640  0.32089506  0.93743579     0.36500
C1460       C  0.51190660  0.30011183  0.94100371     0.37300
N1461       N  0.39161138  0.27831684  0.80758353    -0.43500
N1462       N  0.41172749  0.23552305  0.96926446    -0.43900
N1463       N  0.53583031  0.29551597  0.94158139    -0.41300
N1464       N  0.36983763  0.32486179  0.93746178    -0.42700
H1465       H  0.43172529  0.35103407  0.96508414     0.13400
H1466       H  0.47410783  0.27080732  0.91260472     0.09900
H1467       H  0.42467499  0.29870981  0.86816457     0.11000
H1468       H  0.37632150  0.21474973  0.90906362     0.16800
C1469       C  0.06936761  0.81655605  0.07821662    -0.01400
C1470       C  0.07589910  0.78974839  0.06704182     0.07200
C1471       C  0.06531261  0.78212534  0.04083125    -0.07400
C1472       C  0.04802219  0.80046502  0.02581615     0.04600
C1473       C  0.04069906  0.82717567  0.03718938    -0.14600
C1474       C  0.05197433  0.83506764  0.06322940    -0.07900
C1475       C  0.09432391  0.76952986  0.08197435     0.05600
C1476       C  0.08243113  0.74563662  0.09513314    -0.09100
C1477       C  0.09914511  0.72706764  0.11084179     0.00500
C1478       C  0.12827640  0.73232864  0.11328746     0.00400
C1479       C  0.14022869  0.75536643  0.09866074    -0.12600
C1480       C  0.12361598  0.77386189  0.08315609     0.00900
C1481       C  0.08565809  0.70410003  0.12577739     0.40200
C1482       C  0.13702237  0.79742651  0.06902297     0.36800
C1483       C  0.07965124  0.82509440  0.10537799     0.36500
C1484       C  0.03867628  0.79137318  0.99845430     0.37300
N1485       N  0.07478994  0.68573036  0.13780006    -0.43500
N1486       N  0.14780361  0.81630171  0.05773233    -0.43900
N1487       N  0.03117374  0.78401551  0.97657051    -0.41300
N1488       N  0.08790830  0.83183779  0.12717664    -0.42700
H1489       H  0.04647637  0.85530854  0.07231703     0.13400
H1490       H  0.07074939  0.76174577  0.03198584     0.09900
H1491       H  0.05988726  0.74205815  0.09392309     0.11000
H1492       H  0.16266852  0.75952363  0.10017027     0.16800
C1493       C  0.93332762  0.82660728  0.93456195    -0.01400
C1494       C  0.92220375  0.80078583  0.94455939     0.07200
C1495       C  0.92716401  0.79261624  0.97238788    -0.07400
C1496       C  0.94431823  0.80884310  0.98978512     0.04600
C1497       C  0.95688936  0.83395870  0.97936333    -0.14600
C1498       C  0.95038369  0.84306386  0.95204128    -0.07900
C1499       C  0.90723947  0.78083310  0.92587560     0.05600
C1500       C  0.92293035  0.76575501  0.90576451    -0.09100
C1501       C  0.91008180  0.74579353  0.88837034     0.00500
C1502       C  0.88067546  0.74076264  0.89072285     0.00400
C1503       C  0.86520043  0.75555372  0.91150950    -0.12600
C1504       C  0.87820126  0.77534395  0.92899568     0.00900
C1505       C  0.92783387  0.73055473  0.86874958     0.40200
C1506       C  0.86124011  0.79030254  0.94952442     0.36800
C1507       C  0.92791558  0.83631141  0.90631610     0.36500
C1508       C  0.94879645  0.79904911  0.01820053     0.37300
N1509       N  0.94215420  0.71833686  0.85310172    -0.43500
N1510       N  0.84766564  0.80228418  0.96599687    -0.43900
N1511       N  0.95238323  0.79113827  0.04094266    -0.41300
N1512       N  0.92355132  0.84415890  0.88369966    -0.42700
H1513       H  0.95976462  0.86233008  0.94381465     0.13400
H1514       H  0.91834989  0.77292399  0.98023778     0.09900
H1515       H  0.94545789  0.76944945  0.90385119     0.11000
H1516       H  0.84263184  0.75234653  0.91363300     0.16800
C1517       C  0.93175310  0.62971218  0.72531777    -0.01400
C1518       C  0.92773801  0.60065381  0.72077344     0.07200
C1519       C  0.90865220  0.58587787  0.73813652    -0.07400
C1520       C  0.89289591  0.59968650  0.75916916     0.04600
C1521       C  0.89600945  0.62914372  0.76322342    -0.14600
C1522       C  0.91606013  0.64364999  0.74639886    -0.07900
C1523       C  0.94347268  0.58494608  0.69840437     0.05600
C1524       C  0.97186440  0.57840933  0.70256784    -0.09100
C1525       C  0.98646253  0.56070392  0.68383470     0.00500
C1526       C  0.97262026  0.54912058  0.66023349     0.00400
C1527       C  0.94471273  0.55721352  0.65507397    -0.12600
C1528       C  0.93007812  0.57483320  0.67403133     0.00900
C1529       C  0.01565430  0.55458799  0.68949170     0.40200
C1530       C  0.90114381  0.58190521  0.66845730     0.36800
C1531       C  0.95091784  0.64584103  0.70771121     0.36500
C1532       C  0.87374363  0.58291450  0.77618935     0.37300
N1533       N  0.03903133  0.54966754  0.69402590    -0.43500
N1534       N  0.87794826  0.58775235  0.66414746    -0.43900
N1535       N  0.85837864  0.56942000  0.78976103    -0.41300
N1536       N  0.96621671  0.65871808  0.69347704    -0.42700
H1537       H  0.91864632  0.66621951  0.74880409     0.13400
H1538       H  0.90590708  0.56339665  0.73506373     0.09900
H1539       H  0.98238709  0.58642767  0.72104638     0.11000
H1540       H  0.93385948  0.54862265  0.63706114     0.16800
C1541       C  0.09134228  0.42298828  0.73820555    -0.01400
C1542       C  0.07533531  0.40968120  0.71712087     0.07200
C1543       C  0.07646626  0.38024193  0.71471963    -0.07400
C1544       C  0.09273947  0.36404645  0.73319073     0.04600
C1545       C  0.10813472  0.37730104  0.75483870    -0.14600
C1546       C  0.10743395  0.40682027  0.75679216    -0.07900
C1547       C  0.05731337  0.42624044  0.69756260     0.05600
C1548       C  0.06345288  0.42661544  0.66849434    -0.09100
C1549       C  0.04830669  0.44399890  0.64998382     0.00500
C1550       C  0.02668478  0.46175259  0.66063072     0.00400
C1551       C  0.01962575  0.45980251  0.68952964    -0.12600
C1552       C  0.03441785  0.44224015  0.70777929     0.00900
C1553       C  0.05601711  0.44363307  0.62049564     0.40200
C1554       C  0.02559478  0.44092383  0.73700049     0.36800
C1555       C  0.09230726  0.45331129  0.74058669     0.36500
C1556       C  0.09483467  0.33410806  0.72817620     0.37300
N1557       N  0.06208427  0.44316217  0.59681127    -0.43500
N1558       N  0.01853898  0.43987636  0.76041245    -0.43900
N1559       N  0.09675331  0.31016811  0.72397688    -0.41300
N1560       N  0.09300564  0.47761372  0.74245283    -0.42700
H1561       H  0.11976807  0.41733394  0.77272047     0.13400
H1562       H  0.06472822  0.36990120  0.69823683     0.09900
H1563       H  0.08064291  0.41383633  0.66035091     0.11000
H1564       H  0.00249867  0.47232260  0.69819226     0.16800
C1565       C  0.94007658  0.21623067  0.03962424    -0.01400
C1566       C  0.92224021  0.20497805  0.06068443     0.07200
C1567       C  0.92292399  0.17593762  0.06622606    -0.07400
C1568       C  0.94183262  0.15818483  0.05172909     0.04600
C1569       C  0.96119129  0.16973960  0.03174158    -0.14600
C1570       C  0.95935426  0.19879148  0.02558906    -0.07900
C1571       C  0.90416817  0.22363553  0.07831394     0.05600
C1572       C  0.87816965  0.23279615  0.06818412    -0.09100
C1573       C  0.86084215  0.25077834  0.08426238     0.00500
C1574       C  0.86960065  0.26007131  0.11123673     0.00400
C1575       C  0.89621296  0.25126538  0.12074088    -0.12600
C1576       C  0.91331629  0.23325490  0.10465610     0.00900
C1577       C  0.83417602  0.25880742  0.07243358     0.40200
C1578       C  0.94028387  0.22485664  0.11558303     0.36800
C1579       C  0.93935564  0.24581684  0.03249891     0.36500
C1580       C  0.94077533  0.12844219  0.05807664     0.37300
N1581       N  0.81283761  0.26510972  0.06276793    -0.43500
N1582       N  0.96191080  0.21807880  0.12424795    -0.43900
N1583       N  0.93960559  0.10455756  0.06295088    -0.41300
N1584       N  0.93864012  0.26950339  0.02671840    -0.42700
H1585       H  0.97325350  0.20823099  0.00986803     0.13400
H1586       H  0.90885196  0.16719118  0.08221631     0.09900
H1587       H  0.87133331  0.22570640  0.04766745     0.11000
H1588       H  0.90364288  0.25798215  0.14114970     0.16800
C1589       C  0.12510472  0.23122159  0.92266111    -0.01400
C1590       C  0.09555926  0.22883465  0.92349237     0.07200
C1591       C  0.07940791  0.24739379  0.90734415    -0.07400
C1592       C  0.09232414  0.26740095  0.88952363     0.04600
C1593       C  0.12206538  0.26871216  0.88725860    -0.14600
C1594       C  0.13808514  0.25087571  0.90458172    -0.07900
C1595       C  0.08096447  0.20748540  0.94143152     0.05600
C1596       C  0.07452383  0.21418581  0.96946920    -0.09100
C1597       C  0.05835552  0.19584968  0.98630967     0.00500
C1598       C  0.04805412  0.17026754  0.97500742     0.00400
C1599       C  0.05613529  0.16274633  0.94745673    -0.12600
C1600       C  0.07243567  0.18116796  0.93064039     0.00900
C1601       C  0.05271488  0.20379162  0.01519765     0.40200
C1602       C  0.07960720  0.17303491  0.90215682     0.36800
C1603       C  0.14247914  0.21353877  0.94001214     0.36500
C1604       C  0.07456108  0.28677554  0.87449521     0.37300
N1605       N  0.04827978  0.21012876  0.03836284    -0.43500
N1606       N  0.08545417  0.16652271  0.87933978    -0.43900
N1607       N  0.06031441  0.30247313  0.86265792    -0.41300
N1608       N  0.15638650  0.19954005  0.95412174    -0.42700
H1609       H  0.16091691  0.25157450  0.90339183     0.13400
H1610       H  0.05659566  0.24618837  0.90866372     0.09900
H1611       H  0.08163864  0.23411821  0.97801785     0.11000
H1612       H  0.04856470  0.14314448  0.93857690     0.16800
C1613       C  0.11735200  0.58778166  0.27283061    -0.01400
C1614       C  0.09008198  0.58072051  0.26386821     0.07200
C1615       C  0.08124309  0.59017875  0.23728926    -0.07400
C1616       C  0.09878742  0.60726243  0.22017272     0.04600
C1617       C  0.12570326  0.61528325  0.22972574    -0.14600
C1618       C  0.13472058  0.60483641  0.25590418    -0.07900
C1619       C  0.07060240  0.56376207  0.28218972     0.05600
C1620       C  0.06194222  0.57446570  0.30852724    -0.09100
C1621       C  0.04415765  0.55884494  0.32665692     0.00500
C1622       C  0.03451351  0.53190247  0.31843795     0.00400
C1623       C  0.04329654  0.52134568  0.29201940    -0.12600
C1624       C  0.06117715  0.53685704  0.27408039     0.00900
C1625       C  0.03545637  0.57141523  0.35301793     0.40200
C1626       C  0.07028659  0.52431476  0.24782185     0.36800
C1627       C  0.12811878  0.57758689  0.29927373     0.36500
C1628       C  0.08807641  0.61733924  0.19372852     0.37300
N1629       N  0.02847466  0.58142997  0.37418606    -0.43500
N1630       N  0.07763554  0.51422088  0.22681110    -0.43900
N1631       N  0.07936297  0.62532856  0.17252493    -0.41300
N1632       N  0.13675034  0.56940669  0.32044408    -0.42700
H1633       H  0.15548119  0.61035841  0.26346972     0.13400
H1634       H  0.06030331  0.58472215  0.23019278     0.09900
H1635       H  0.06904985  0.59522139  0.31488350     0.11000
H1636       H  0.03641055  0.50061581  0.28535778     0.16800
C1637       C  0.87967320  0.40818425  0.26948507    -0.01400
C1638       C  0.90926248  0.40669666  0.26774977     0.07200
C1639       C  0.92189599  0.38904918  0.24746992    -0.07400
C1640       C  0.90541831  0.37273715  0.22926320     0.04600
C1641       C  0.87571083  0.37428778  0.23098533    -0.14600
C1642       C  0.86326039  0.39226635  0.25111993    -0.07900
C1643       C  0.92720074  0.42491540  0.28565025     0.05600
C1644       C  0.92932205  0.41944291  0.31463610    -0.09100
C1645       C  0.94556713  0.43685446  0.33210655     0.00500
C1646       C  0.96001555  0.46048525  0.32050807     0.00400
C1647       C  0.95730287  0.46585795  0.29140051    -0.12600
C1648       C  0.94128055  0.44842647  0.27411792     0.00900
C1649       C  0.94739520  0.42939252  0.36150866     0.40200
C1650       C  0.93910745  0.45542876  0.24459595     0.36800
C1651       C  0.86567224  0.42620741  0.28973221     0.36500
C1652       C  0.91946684  0.35538776  0.20847771     0.37300
N1653       N  0.94876101  0.42322254  0.38505047    -0.43500
N1654       N  0.93732771  0.46098348  0.22094185    -0.43900
N1655       N  0.93073528  0.34154054  0.19176133    -0.41300
N1656       N  0.85445403  0.44060422  0.30600076    -0.42700
H1657       H  0.84048501  0.39344125  0.25300685     0.13400
H1658       H  0.94469335  0.38817416  0.24578619     0.09900
H1659       H  0.91831730  0.40138763  0.32360017     0.11000
H1660       H  0.96772045  0.48392763  0.28182108     0.16800
C1661       C  0.28089782  0.61874981  0.08141291    -0.01400
C1662       C  0.27376939  0.59056519  0.07589870     0.07200
C1663       C  0.24848318  0.57944331  0.08701113    -0.07400
C1664       C  0.23084529  0.59579787  0.10450510     0.04600
C1665       C  0.23853063  0.62380813  0.11092126    -0.14600
C1666       C  0.26335259  0.63504885  0.09868662    -0.07900
C1667       C  0.29257421  0.57259087  0.05844199     0.05600
C1668       C  0.31591416  0.55956079  0.07080362    -0.09100
C1669       C  0.33431946  0.54269463  0.05471786     0.00500
C1670       C  0.32938784  0.53881609  0.02571110     0.00400
C1671       C  0.30627549  0.55245906  0.01343185    -0.12600
C1672       C  0.28801599  0.56923419  0.02945903     0.00900
C1673       C  0.35709152  0.52854840  0.06873620     0.40200
C1674       C  0.26480365  0.58294368  0.01571250     0.36800
C1675       C  0.30636463  0.63122900  0.06987474     0.36500
C1676       C  0.20610598  0.58281377  0.11692183     0.37300
N1677       N  0.37530187  0.51714075  0.07999018    -0.43500
N1678       N  0.24623780  0.59396650  0.00466894    -0.43900
N1679       N  0.18632037  0.57230070  0.12690451    -0.41300
N1680       N  0.32677714  0.64117420  0.06060939    -0.42700
H1681       H  0.26949752  0.65658908  0.10323414     0.13400
H1682       H  0.24289979  0.55774293  0.08254704     0.09900
H1683       H  0.31954653  0.56235736  0.09313922     0.11000
H1684       H  0.30231412  0.54988078  0.99112271     0.16800
C1685       C  0.28095232  0.46035196  0.93245320    -0.01400
C1686       C  0.29191926  0.44065908  0.91320401     0.07200
C1687       C  0.32121963  0.43652456  0.91160899    -0.07400
C1688       C  0.33956858  0.45126257  0.92939409     0.04600
C1689       C  0.32850209  0.47071928  0.94929332    -0.14600
C1690       C  0.29906150  0.47514502  0.94995915    -0.07900
C1691       C  0.27269296  0.42287835  0.89630241     0.05600
C1692       C  0.25513852  0.43550869  0.87632452    -0.09100
C1693       C  0.23508714  0.41960112  0.86173155     0.00500
C1694       C  0.23221042  0.39041228  0.86727569     0.00400
C1695       C  0.24987416  0.37802931  0.88745398    -0.12600
C1696       C  0.26998711  0.39383683  0.90172545     0.00900
C1697       C  0.21755878  0.43392506  0.84167652     0.40200
C1698       C  0.28732486  0.37981371  0.92220658     0.36800
C1699       C  0.25095720  0.46477261  0.93569358     0.36500
C1700       C  0.36934049  0.44553919  0.92677774     0.37300
N1701       N  0.20354948  0.44546638  0.82559247    -0.43500
N1702       N  0.30130519  0.36856966  0.93852064    -0.43900
N1703       N  0.39317191  0.44078191  0.92448269    -0.41300
N1704       N  0.22694085  0.46826119  0.93833886    -0.42700
H1705       H  0.28965979  0.48988802  0.96473431     0.13400
H1706       H  0.32971129  0.42130539  0.89674154     0.09900
H1707       H  0.25697575  0.45796705  0.87233280     0.11000
H1708       H  0.24851245  0.35560651  0.89178405     0.16800
C1709       C  0.71350524  0.53630177  0.92942617    -0.01400
C1710       C  0.70843651  0.56491033  0.92333618     0.07200
C1711       C  0.68306613  0.57714504  0.93281714    -0.07400
C1712       C  0.66335076  0.56161534  0.94897108     0.04600
C1713       C  0.66908037  0.53329262  0.95620627    -0.14600
C1714       C  0.69407446  0.52092500  0.94582821    -0.07900
C1715       C  0.72970169  0.58248779  0.90777556     0.05600
C1716       C  0.73595235  0.57652035  0.87946830    -0.09100
C1717       C  0.75546150  0.59284993  0.86397922     0.00500
C1718       C  0.76931748  0.61598932  0.87685141     0.00400
C1719       C  0.76341252  0.62136559  0.90551732    -0.12600
C1720       C  0.74396866  0.60488336  0.92092438     0.00900
C1721       C  0.75966319  0.58588781  0.83462307     0.40200
C1722       C  0.73924311  0.61107902  0.95037316     0.36800
C1723       C  0.73902226  0.52253031  0.91996587     0.36500
C1724       C  0.63825722  0.57572886  0.95901956     0.37300
N1725       N  0.76292946  0.58022104  0.81110329    -0.43500
N1726       N  0.73544616  0.61591358  0.97400299    -0.43900
N1727       N  0.61814449  0.58710722  0.96700863    -0.41300
N1728       N  0.75943166  0.51147266  0.91230268    -0.42700
H1729       H  0.69872616  0.49914330  0.95095558     0.13400
H1730       H  0.67889664  0.59908618  0.92796935     0.09900
H1731       H  0.72512311  0.55924288  0.86927040     0.11000
H1732       H  0.77376802  0.63876983  0.91595582     0.16800
C1733       C  0.70536878  0.43380021  0.03961649    -0.01400
C1734       C  0.69754967  0.42958167  0.06801005     0.07200
C1735       C  0.67312905  0.44257645  0.07871820    -0.07400
C1736       C  0.65665214  0.45994089  0.06149461     0.04600
C1737       C  0.66476445  0.46455730  0.03304980    -0.14600
C1738       C  0.68914320  0.45122194  0.02250891    -0.07900
C1739       C  0.71498889  0.41172619  0.08658742     0.05600
C1740       C  0.73699638  0.42415081  0.10160766    -0.09100
C1741       C  0.75540181  0.40764047  0.11756962     0.00500
C1742       C  0.75197899  0.37802320  0.11849295     0.00400
C1743       C  0.72987669  0.36573501  0.10328160    -0.12600
C1744       C  0.71140234  0.38228964  0.08756622     0.00900
C1745       C  0.77822423  0.42152215  0.13181322     0.40200
C1746       C  0.68887292  0.36869607  0.07258270     0.36800
C1747       C  0.73009606  0.42047456  0.02766131     0.36500
C1748       C  0.63246734  0.47381154  0.07389985     0.37300
N1749       N  0.79656480  0.43266550  0.14315296    -0.43500
N1750       N  0.67075602  0.35786229  0.06061522    -0.43900
N1751       N  0.61314838  0.48502958  0.08387523    -0.41300
N1752       N  0.74989664  0.40969052  0.01817768    -0.42700
H1753       H  0.69557786  0.45436738  0.00070036     0.13400
H1754       H  0.66711883  0.43935750  0.10062689     0.09900
H1755       H  0.74006871  0.44679692  0.10044782     0.11000
H1756       H  0.72664324  0.34309805  0.10408586     0.16800
loop_ 
_geom_bond_atom_site_label_1 
_geom_bond_atom_site_label_2 
_geom_bond_distance 
_geom_bond_site_symmetry_2 
_ccdc_geom_bond_type 
Zn1           O5   1.984   1_554  S
Zn1           O6   2.046       .  S
Zn1          O10   2.044       .  S
Zn1          O17   2.046       .  S
Zn2           O5   1.982       .  S
Zn2           O7   2.057       .  S
Zn2           O9   2.038       .  S
Zn2          O13   2.054       .  S
Zn3           O5   1.985   1_554  S
Zn3           O8   2.044       .  S
Zn3          O11   2.044       .  S
Zn3          O14   2.051       .  S
Zn4           O5   1.976       .  S
Zn4          O12   2.016       .  S
Zn4          O15   2.035       .  S
Zn4          O16   2.043       .  S
O6           C18   1.276   1_554  A
O7           C19   1.277       .  A
O8           C20   1.275       .  A
O9           C18   1.276       .  A
O10          C20   1.276       .  A
O11          C19   1.275   1_554  A
O12          C21   1.272       .  A
O13          C22   1.276       .  A
O14          C21   1.277   1_554  A
O15          C22   1.274       .  A
O16          C23   1.275       .  A
O17          C23   1.275   1_554  A
C18          C97   1.472       .  S
C19         C223   1.479       .  S
C20         C353   1.475       .  S
C21         C101   1.469       .  S
C22         C427   1.476       .  S
C23         C229   1.475       .  S
Zn24         O28   1.986   1_545  S
Zn24         O29   2.050       .  S
Zn24         O33   2.046       .  S
Zn24         O40   2.045       .  S
Zn25         O28   1.982   1_545  S
Zn25         O30   2.038       .  S
Zn25         O32   2.048       .  S
Zn25         O36   2.037       .  S
Zn26         O28   1.985       .  S
Zn26         O31   2.060       .  S
Zn26         O34   2.043       .  S
Zn26         O37   2.073       .  S
Zn27         O28   1.984       .  S
Zn27         O35   2.057       .  S
Zn27         O38   2.049       .  S
Zn27         O39   2.038       .  S
O29          C41   1.275       .  A
O30          C42   1.275   1_545  A
O31          C43   1.278       .  A
O32          C41   1.275       .  A
O33          C43   1.277   1_545  A
O34          C42   1.276       .  A
O35          C44   1.277       .  A
O36          C45   1.275   1_545  A
O37          C44   1.279       .  A
O38          C45   1.276       .  A
O39          C46   1.276       .  A
O40          C46   1.276   1_545  A
C41         C388   1.479       .  S
C42         C276   1.472   1_565  S
C43         C479   1.479       .  S
C44         C392   1.487       .  S
C45         C485   1.474       .  S
C46         C237   1.472       .  S
Zn47         O51   1.983       .  S
Zn47         O52   2.045       .  S
Zn47         O56   2.054       .  S
Zn47         O63   2.048       .  S
Zn48         O51   1.989   1_455  S
Zn48         O53   2.052       .  S
Zn48         O55   2.049       .  S
Zn48         O59   2.051       .  S
Zn49         O51   1.978   1_455  S
Zn49         O54   2.046       .  S
Zn49         O57   2.037       .  S
Zn49         O60   2.048       .  S
Zn50         O51   1.986       .  S
Zn50         O58   2.056       .  S
Zn50         O61   2.042       .  S
Zn50         O62   2.044       .  S
O52          C64   1.276       .  A
O53          C65   1.277       .  A
O54          C66   1.277   1_455  A
O55          C64   1.277   1_455  A
O56          C66   1.278       .  A
O57          C65   1.277       .  A
O58          C67   1.278       .  A
O59          C68   1.278   1_455  A
O60          C67   1.277   1_455  A
O61          C68   1.276       .  A
O62          C69   1.277       .  A
O63          C69   1.278       .  A
C64         C505   1.484       .  S
C65         C421   1.483       .  S
C66         C119   1.486       .  S
C67         C493   1.487       .  S
C68         C107   1.484       .  S
C69         C359   1.483       .  S
Zn70         O74   1.988   1_556  S
Zn70         O75   2.036       .  S
Zn70         O79   2.056       .  S
Zn70         O86   2.037       .  S
Zn71         O74   1.987   1_655  S
Zn71         O76   2.054       .  S
Zn71         O78   2.044       .  S
Zn71         O82   2.059       .  S
Zn72         O74   1.968   1_666  S
Zn72         O77   2.043       .  S
Zn72         O80   2.028       .  S
Zn72         O83   2.026       .  S
Zn73         O74   1.989   1_565  S
Zn73         O81   2.062       .  S
Zn73         O84   2.065       .  S
Zn73         O85   2.053       .  S
O75          C87   1.276   1_556  A
O76          C88   1.277       .  A
O77          C89   1.276   1_655  A
O78          C87   1.278   1_655  A
O79          C89   1.276   1_545  A
O80          C88   1.275   1_566  A
O81          C90   1.278       .  A
O82          C91   1.278   1_655  A
O83          C90   1.275   1_656  A
O84          C91   1.279   1_565  A
O85          C92   1.279   1_565  A
O86          C92   1.276   1_556  A
C87         C113   1.480       .  S
C88         C247   1.482       .  S
C89         C555   1.487       .  S
C90         C150   1.482       .  S
C91         C497   1.493       .  S
C92         C241   1.482       .  S
C93        C1713   1.491       .  S
C93          N94   1.356       .  A
C93          N98   1.364       .  A
N94          C95   1.356   1_556  A
C95        C1737   1.487       .  S
C95          N96   1.360       .  A
N96          C97   1.361   1_554  A
C97          N98   1.365       .  A
C99        C1689   1.499       .  S
C99         N100   1.364       .  A
C99         N104   1.353       .  A
N100        C101   1.366       .  A
C101        N102   1.363   1_556  A
N102        C103   1.359       .  A
C103       C1670   1.483       .  S
C103        N104   1.350   1_554  A
C105       C1622   1.493       .  S
C105        N106   1.362       .  A
C105        N110   1.354   1_455  A
N106        C107   1.364   1_455  A
C107        N108   1.367       .  A
N108        C109   1.364       .  A
C109       C1646   1.500       .  S
C109        N110   1.356       .  A
C111       C1569   1.498       .  S
C111        N112   1.361       .  A
C111        N116   1.355   1_655  A
N112        C113   1.363   1_655  A
C113        N114   1.366   1_554  A
N114        C115   1.363       .  A
C115       C1598   1.486       .  S
C115        N116   1.354   1_556  A
C117       C1526   1.489       .  S
C117        N118   1.363       .  A
C117        N122   1.353       .  A
N118        C119   1.368       .  A
C119        N120   1.368   1_655  A
N120        C121   1.364       .  A
C121       C1550   1.500       .  S
C121        N122   1.355   1_455  A
Zn123       O127   1.912       .  S
Zn123       O128   2.024       .  S
Zn123       O132   1.992       .  S
Zn123       O139   2.044       .  S
Zn124       O127   1.931       .  S
Zn124       O129   2.057       .  S
Zn124       O131   2.047       .  S
Zn124       O135   2.072       .  S
Zn125       O127   1.930       .  S
Zn125       O130   2.046       .  S
Zn125       O133   2.034       .  S
Zn125       O136   2.054       .  S
Zn126       O127   1.850       .  S
Zn126       O134   1.950       .  S
Zn126       O137   1.961       .  S
Zn126       O138   1.979       .  S
O128        C140   1.280       .  A
O129        C141   1.284       .  A
O130        C142   1.280       .  A
O131        C140   1.283       .  A
O132        C142   1.276       .  A
O133        C141   1.281       .  A
O134        C143   1.266       .  A
O135        C144   1.273       .  A
O136        C143   1.275       .  A
O137        C144   1.263       .  A
O138        C145   1.266       .  A
O139        C145   1.269       .  A
C140       C1593   1.492       .  S
C141       C1545   1.489       .  S
C142       C1694   1.490       .  S
C143        C448   1.459       .  S
C144        C600   1.456       .  S
C145        C302   1.457       .  S
C146       C1473   1.490       .  S
C146        N147   1.353   1_455  A
C146        N151   1.366       .  A
N147        C148   1.351   1_554  A
C148       C1497   1.485       .  S
C148        N149   1.359       .  A
N149        C150   1.365   1_656  A
C150        N151   1.368       .  A
Zn152       O156   1.849       .  S
Zn152       O157   1.974       .  S
Zn152       O161   1.964       .  S
Zn152       O168   1.957       .  S
Zn153       O156   1.924       .  S
Zn153       O158   2.026       .  S
Zn153       O160   2.052       .  S
Zn153       O164   2.041       .  S
Zn154       O156   1.939       .  S
Zn154       O159   2.065       .  S
Zn154       O162   2.058       .  S
Zn154       O165   2.034       .  S
Zn155       O156   1.939       .  S
Zn155       O163   2.035       .  S
Zn155       O166   2.045       .  S
Zn155       O167   2.073       .  S
O157        C169   1.266       .  A
O158        C170   1.279       .  A
O159        C171   1.273       .  A
O160        C169   1.273       .  A
O161        C171   1.266       .  A
O162        C170   1.283       .  A
O163        C172   1.282       .  A
O164        C173   1.281       .  A
O165        C172   1.281       .  A
O166        C173   1.282       .  A
O167        C174   1.274       .  A
O168        C174   1.265       .  A
C169        C472   1.458       .  S
C170       C1521   1.498       .  S
C171        C576   1.459       .  S
C172       C1502   1.495       .  S
C173       C1718   1.501       .  S
C174        C269   1.466       .  S
Zn175       O179   1.931       .  S
Zn175       O180   2.038       .  S
Zn175       O184   2.016       .  S
Zn175       O191   2.067       .  S
Zn176       O179   1.932       .  S
Zn176       O181   2.044       .  S
Zn176       O183   2.032       .  S
Zn176       O187   2.053       .  S
Zn177       O179   1.931       .  S
Zn177       O182   2.048       .  S
Zn177       O185   2.030       .  S
Zn177       O188   2.072       .  S
Zn178       O179   1.854       .  S
Zn178       O186   1.973       .  S
Zn178       O189   1.958       .  S
Zn178       O190   1.956       .  S
O180        C192   1.281       .  A
O181        C193   1.280       .  A
O182        C194   1.282       .  A
O183        C192   1.281       .  A
O184        C194   1.279       .  A
O185        C193   1.280       .  A
O186        C195   1.263       .  A
O187        C196   1.274       .  A
O188        C195   1.275       .  A
O189        C196   1.268       .  A
O190        C197   1.264       .  A
O191        C197   1.272       .  A
C192       C1742   1.487       .  S
C193       C1574   1.501       .  S
C194       C1641   1.486       .  S
C195        C547   1.463       .  S
C196        C347   1.461       .  S
C197        C378   1.460       .  S
Zn198       O202   1.941       .  S
Zn198       O203   1.989       .  S
Zn198       O207   1.991       .  S
Zn198       O214   1.959       .  S
Zn199       O202   1.933       .  S
Zn199       O204   2.000       .  S
Zn199       O206   1.994       .  S
Zn199       O210   1.970       .  S
Zn200       O202   1.950       .  S
Zn200       O205   2.016       .  S
Zn200       O208   2.019       .  S
Zn200       O211   1.957       .  S
Zn201       O202   1.985       .  S
Zn201       O209   2.090       .  S
Zn201       O212   2.100       .  S
Zn201       O213   2.093       .  S
O203        C215   1.267       .  A
O204        C216   1.270       .  A
O205        C217   1.269       .  A
O206        C215   1.270       .  A
O207        C217   1.267       .  A
O208        C216   1.272       .  A
O209        C218   1.283       .  A
O210        C219   1.271       .  A
O211        C218   1.269       .  A
O212        C219   1.284       .  A
O213        C220   1.284       .  A
O214        C220   1.269       .  A
C215        C415   1.459       .  S
C216        C527   1.466       .  S
C217        C321   1.457       .  S
C218       C1478   1.482       .  S
C219       C1617   1.493       .  S
C220       C1665   1.486       .  S
C221       C1449   1.486       .  S
C221        N222   1.361       .  A
C221        N226   1.354       .  A
N222        C223   1.364       .  A
C223        N224   1.367   1_556  A
N224        C225   1.366       .  A
C225       C1425   1.503       .  S
C225        N226   1.358   1_554  A
C227       C1377   1.480       .  S
C227        N228   1.360       .  A
C227        N232   1.353       .  A
N228        C229   1.362       .  A
C229        N230   1.367   1_556  A
N230        C231   1.365       .  A
C231       C1401   1.491       .  S
C231        N232   1.354   1_554  A
C233       C1329   1.493       .  S
C233        N234   1.353   1_545  A
C233        N238   1.365       .  A
N234        C235   1.350       .  A
C235       C1358   1.474       .  S
C235        N236   1.359       .  A
N236        C237   1.363       .  A
C237        N238   1.367   1_565  A
C239       C1286   1.487       .  S
C239        N240   1.361       .  A
C239        N244   1.352   1_565  A
N240        C241   1.365   1_565  A
C241        N242   1.368   1_554  A
N242        C243   1.364       .  A
C243       C1305   1.503       .  S
C243        N244   1.354   1_556  A
C245       C1238   1.501       .  S
C245        N246   1.367       .  A
C245        N250   1.355   1_554  A
N246        C247   1.369       .  A
C247        N248   1.364   1_544  A
N248        C249   1.358       .  A
C249       C1262   1.482       .  S
C249        N250   1.352   1_565  A
Zn251       O255   1.911       .  S
Zn251       O256   2.017       .  S
Zn251       O260   2.044       .  S
Zn251       O267   2.000       .  S
Zn252       O255   1.934       .  S
Zn252       O257   2.076       .  S
Zn252       O259   2.041       .  S
Zn252       O263   2.052       .  S
Zn253       O255   1.847       .  S
Zn253       O258   1.972       .  S
Zn253       O261   1.951       .  S
Zn253       O264   1.960       .  S
Zn254       O255   1.917       .  S
Zn254       O262   2.047       .  S
Zn254       O265   2.017       .  S
Zn254       O266   2.046       .  S
O256        C268   1.280       .  A
O257        C269   1.275       .  A
O258        C270   1.263       .  A
O259        C268   1.282       .  A
O260        C270   1.269       .  A
O261        C269   1.265       .  A
O262        C271   1.273       .  A
O263        C272   1.283       .  A
O264        C271   1.266       .  A
O265        C272   1.280       .  A
O266        C273   1.281       .  A
O267        C273   1.277       .  A
C268       C1382   1.479       .  S
C270        C473   1.450       .  S
C271        C581   1.459       .  S
C272       C1257   1.491       .  S
C273       C1214   1.482       .  S
C274       C1209   1.485       .  S
C274        N275   1.361       .  A
C274        N279   1.354   1_565  A
N275        C276   1.363   1_565  A
C276        N277   1.364       .  A
N277        C278   1.363       .  A
C278       C1185   1.497       .  S
C278        N279   1.356       .  A
Zn280       O284   1.945       .  S
Zn280       O285   1.954       .  S
Zn280       O289   2.002       .  S
Zn280       O296   1.969       .  S
Zn281       O284   1.979       .  S
Zn281       O286   2.087       .  S
Zn281       O288   2.098       .  S
Zn281       O292   2.100       .  S
Zn282       O284   1.939       .  S
Zn282       O287   1.998       .  S
Zn282       O290   1.963       .  S
Zn282       O293   1.981       .  S
Zn283       O284   1.955       .  S
Zn283       O291   2.018       .  S
Zn283       O294   1.988       .  S
Zn283       O295   2.036       .  S
O285        C297   1.268       .  A
O286        C298   1.283       .  A
O287        C299   1.268       .  A
O288        C297   1.285       .  A
O289        C299   1.268       .  A
O290        C298   1.270       .  A
O291        C300   1.272       .  A
O292        C301   1.284       .  A
O293        C300   1.267       .  A
O294        C301   1.272       .  A
O295        C302   1.274       .  A
O296        C302   1.265       .  A
C297       C1310   1.482       .  S
C298       C1190   1.483       .  S
C299        C599   1.464       .  S
C300        C452   1.451       .  S
C301       C1454   1.493       .  S
Zn303       O307   1.914       .  S
Zn303       O308   2.027       .  S
Zn303       O312   2.058       .  S
Zn303       O319   2.031       .  S
Zn304       O307   1.909       .  S
Zn304       O309   2.050       .  S
Zn304       O311   2.033       .  S
Zn304       O315   2.009       .  S
Zn305       O307   1.844       .  S
Zn305       O310   1.978       .  S
Zn305       O313   1.977       .  S
Zn305       O316   1.966       .  S
Zn306       O307   1.927       .  S
Zn306       O314   2.059       .  S
Zn306       O317   2.050       .  S
Zn306       O318   2.026       .  S
O308        C320   1.280       .  A
O309        C321   1.273       .  A
O310        C322   1.266       .  A
O311        C320   1.279       .  A
O312        C322   1.274       .  A
O313        C321   1.266       .  A
O314        C323   1.273       .  A
O315        C324   1.278       .  A
O316        C323   1.265       .  A
O317        C324   1.282       .  A
O318        C325   1.280       .  A
O319        C325   1.280       .  A
C320       C1406   1.495       .  S
C322        C416   1.457       .  S
C323        C526   1.455       .  S
C324       C1281   1.491       .  S
C325       C1353   1.487       .  S
Zn326       O330   1.936       .  S
Zn326       O331   2.071       .  S
Zn326       O335   2.037       .  S
Zn326       O342   2.051       .  S
Zn327       O330   1.848       .  S
Zn327       O332   1.969       .  S
Zn327       O334   1.965       .  S
Zn327       O338   1.958       .  S
Zn328       O330   1.927       .  S
Zn328       O333   2.041       .  S
Zn328       O336   2.062       .  S
Zn328       O339   2.030       .  S
Zn329       O330   1.930       .  S
Zn329       O337   2.049       .  S
Zn329       O340   2.055       .  S
Zn329       O341   2.032       .  S
O331        C343   1.274       .  A
O332        C344   1.265       .  A
O333        C345   1.283       .  A
O334        C343   1.268       .  A
O335        C345   1.281       .  A
O336        C344   1.272       .  A
O337        C346   1.281       .  A
O338        C347   1.265       .  A
O339        C346   1.280       .  A
O340        C347   1.273       .  A
O341        C348   1.280       .  A
O342        C348   1.283       .  A
C343        C382   1.469       .  S
C344        C549   1.457       .  S
C345       C1334   1.499       .  S
C346       C1233   1.503       .  S
C348       C1430   1.501       .  S
C349       C1161   1.493       .  S
C349        N350   1.352       .  A
C349        N354   1.363       .  A
N350        C351   1.348       .  A
C351       C1137   1.475       .  S
C351        N352   1.361       .  A
N352        C353   1.366       .  A
C353        N354   1.366       .  A
C355       C1089   1.480       .  S
C355        N356   1.349       .  A
C355        N360   1.360       .  A
N356        C357   1.352       .  A
C357       C1118   1.500       .  S
C357        N358   1.365       .  A
N358        C359   1.369       .  A
C359        N360   1.366       .  A
Zn361       O365   1.934       .  S
Zn361       O366   2.064       .  S
Zn361       O370   2.036       .  S
Zn361       O377   2.014       .  S
Zn362       O365   1.853       .  S
Zn362       O367   1.965       .  S
Zn362       O369   1.964       .  S
Zn362       O373   1.955       .  S
Zn363       O365   1.929       .  S
Zn363       O368   2.024       .  S
Zn363       O371   2.050       .  S
Zn363       O374   2.046       .  S
Zn364       O365   1.935       .  S
Zn364       O372   2.039       .  S
Zn364       O375   2.079       .  S
Zn364       O376   2.032       .  S
O366        C378   1.272       .  A
O367        C379   1.266       .  A
O368        C380   1.280       .  A
O369        C378   1.266       .  A
O370        C380   1.280       .  A
O371        C379   1.272       .  A
O372        C381   1.280       .  A
O373        C382   1.264       .  A
O374        C381   1.282       .  A
O375        C382   1.276       .  A
O376        C383   1.280       .  A
O377        C383   1.279       .  A
C379        C548   1.454       .  S
C380       C1113   1.493       .  S
C381       C1070   1.495       .  S
C383       C1166   1.492       .  S
C384       C1065   1.486       .  S
C384        N385   1.351       .  A
C384        N389   1.363       .  A
N385        C386   1.353       .  A
C386       C1041   1.496       .  S
C386        N387   1.364       .  A
N387        C388   1.367       .  A
C388        N389   1.368       .  A
C390        C993   1.492       .  S
C390        N391   1.365       .  A
C390        N395   1.351       .  A
N391        C392   1.368       .  A
C392        N393   1.370       .  A
N393        C394   1.366       .  A
C394       C1017   1.490       .  S
C394        N395   1.350       .  A
Zn396       O400   1.940       .  S
Zn396       O401   1.954       .  S
Zn396       O405   1.983       .  S
Zn396       O412   1.987       .  S
Zn397       O400   1.987       .  S
Zn397       O402   2.098       .  S
Zn397       O404   2.092       .  S
Zn397       O408   2.098       .  S
Zn398       O400   1.949       .  S
Zn398       O403   2.009       .  S
Zn398       O406   1.948       .  S
Zn398       O409   2.011       .  S
Zn399       O400   1.944       .  S
Zn399       O407   1.996       .  S
Zn399       O410   1.966       .  S
Zn399       O411   1.989       .  S
O401        C413   1.267       .  A
O402        C414   1.284       .  A
O403        C415   1.271       .  A
O404        C413   1.283       .  A
O405        C415   1.267       .  A
O406        C414   1.268       .  A
O407        C416   1.268       .  A
O408        C417   1.284       .  A
O409        C416   1.269       .  A
O410        C417   1.270       .  A
O411        C418   1.268       .  A
O412        C418   1.269       .  A
C413        C969   1.475       .  S
C414       C1142   1.483       .  S
C417       C1022   1.482       .  S
C418        C529   1.457       .  S
C419        C974   1.485       .  S
C419        N420   1.365       .  A
C419        N424   1.350       .  A
N420        C421   1.370       .  A
C421        N422   1.366       .  A
N422        C423   1.360       .  A
C423        C945   1.498       .  S
C423        N424   1.351       .  A
C425        C921   1.494       .  S
C425        N426   1.363       .  A
C425        N430   1.354       .  A
N426        C427   1.366       .  A
C427        N428   1.364       .  A
N428        C429   1.363       .  A
C429        C897   1.497       .  S
C429        N430   1.354       .  A
Zn431       O435   1.918       .  S
Zn431       O436   2.047       .  S
Zn431       O440   2.016       .  S
Zn431       O447   2.038       .  S
Zn432       O435   1.848       .  S
Zn432       O437   1.970       .  S
Zn432       O439   1.960       .  S
Zn432       O443   1.966       .  S
Zn433       O435   1.922       .  S
Zn433       O438   2.042       .  S
Zn433       O441   2.061       .  S
Zn433       O444   2.019       .  S
Zn434       O435   1.924       .  S
Zn434       O442   2.052       .  S
Zn434       O445   2.052       .  S
Zn434       O446   2.028       .  S
O436        C448   1.272       .  A
O437        C449   1.265       .  A
O438        C450   1.282       .  A
O439        C448   1.267       .  A
O440        C450   1.279       .  A
O441        C449   1.273       .  A
O442        C451   1.284       .  A
O443        C452   1.264       .  A
O444        C451   1.278       .  A
O445        C452   1.271       .  A
O446        C453   1.280       .  A
O447        C453   1.280       .  A
C449        C601   1.459       .  S
C450        C950   1.494       .  S
C451       C1046   1.499       .  S
C453        C926   1.501       .  S
Zn454       O458   1.928       .  S
Zn454       O459   2.010       .  S
Zn454       O463   2.010       .  S
Zn454       O470   1.961       .  S
Zn455       O458   1.938       .  S
Zn455       O460   2.019       .  S
Zn455       O462   2.005       .  S
Zn455       O466   1.957       .  S
Zn456       O458   1.926       .  S
Zn456       O461   1.988       .  S
Zn456       O464   1.992       .  S
Zn456       O467   1.965       .  S
Zn457       O458   1.971       .  S
Zn457       O465   2.085       .  S
Zn457       O468   2.090       .  S
Zn457       O469   2.098       .  S
O459        C471   1.270       .  A
O460        C472   1.269       .  A
O461        C473   1.267       .  A
O462        C471   1.271       .  A
O463        C473   1.272       .  A
O464        C472   1.268       .  A
O465        C474   1.283       .  A
O466        C475   1.270       .  A
O467        C474   1.271       .  A
O468        C475   1.284       .  A
O469        C476   1.284       .  A
O470        C476   1.269       .  A
C471        C578   1.458       .  S
C474        C902   1.481       .  S
C475       C1094   1.490       .  S
C476        C998   1.488       .  S
C477        C849   1.485       .  S
C477        N478   1.366       .  A
C477        N482   1.350   1_545  A
N478        C479   1.370   1_545  A
C479        N480   1.365       .  A
N480        C481   1.362       .  A
C481        C873   1.493       .  S
C481        N482   1.351       .  A
C483        C825   1.491       .  S
C483        N484   1.362       .  A
C483        N488   1.352       .  A
N484        C485   1.365   1_545  A
C485        N486   1.366       .  A
N486        C487   1.363       .  A
C487        C801   1.497       .  S
C487        N488   1.354   1_565  A
C489        C777   1.495       .  S
C489        N490   1.350   1_655  A
C489        N494   1.364       .  A
N490        C491   1.348       .  A
C491        C753   1.484       .  S
C491        N492   1.364       .  A
N492        C493   1.370   1_455  A
C493        N494   1.368       .  A
C495        C734   1.498       .  S
C495        N496   1.366       .  A
C495        N500   1.349   1_465  A
N496        C497   1.371   1_565  A
C497        N498   1.371   1_455  A
N498        C499   1.365       .  A
C499        C705   1.495       .  S
C499        N500   1.348       .  A
C501        C657   1.479       .  S
C501        N502   1.351   1_455  A
C501        N506   1.362       .  A
N502        C503   1.353       .  A
C503        C681   1.486       .  S
C503        N504   1.363       .  A
N504        C505   1.367       .  A
C505        N506   1.367   1_655  A
Zn507       O511   1.953       .  S
Zn507       O512   1.952       .  S
Zn507       O516   2.016       .  S
Zn507       O523   2.000       .  S
Zn508       O511   1.986       .  S
Zn508       O513   2.088       .  S
Zn508       O515   2.099       .  S
Zn508       O519   2.097       .  S
Zn509       O511   1.943       .  S
Zn509       O514   1.984       .  S
Zn509       O517   1.967       .  S
Zn509       O520   2.012       .  S
Zn510       O511   1.941       .  S
Zn510       O518   2.000       .  S
Zn510       O521   1.952       .  S
Zn510       O522   1.986       .  S
O512        C524   1.268       .  A
O513        C525   1.284       .  A
O514        C526   1.267       .  A
O515        C524   1.284       .  A
O516        C526   1.270       .  A
O517        C525   1.271       .  A
O518        C527   1.270       .  A
O519        C528   1.283       .  A
O520        C527   1.270       .  A
O521        C528   1.267       .  A
O522        C529   1.268       .  A
O523        C529   1.270       .  A
C524        C878   1.485       .  S
C525        C729   1.482       .  S
C528        C662   1.478       .  S
Zn530       O534   1.935       .  S
Zn530       O535   2.025       .  S
Zn530       O539   2.021       .  S
Zn530       O546   1.959       .  S
Zn531       O534   1.941       .  S
Zn531       O536   2.020       .  S
Zn531       O538   2.008       .  S
Zn531       O542   1.964       .  S
Zn532       O534   1.931       .  S
Zn532       O537   1.997       .  S
Zn532       O540   1.982       .  S
Zn532       O543   1.963       .  S
Zn533       O534   1.979       .  S
Zn533       O541   2.092       .  S
Zn533       O544   2.086       .  S
Zn533       O545   2.100       .  S
O535        C547   1.271       .  A
O536        C548   1.269       .  A
O537        C549   1.268       .  A
O538        C547   1.271       .  A
O539        C549   1.273       .  A
O540        C548   1.267       .  A
O541        C550   1.284       .  A
O542        C551   1.270       .  A
O543        C550   1.270       .  A
O544        C551   1.283       .  A
O545        C552   1.284       .  A
O546        C552   1.270       .  A
C550        C830   1.481       .  S
C551        C782   1.480       .  S
C552        C710   1.493       .  S
C553        C633   1.487       .  S
C553        N554   1.362       .  A
C553        N558   1.351   1_655  A
N554        C555   1.367   1_655  A
C555        N556   1.370   1_565  A
N556        C557   1.365       .  A
C557        C609   1.486       .  S
C557        N558   1.351   1_545  A
Zn559       O563   1.850       .  S
Zn559       O564   1.950       .  S
Zn559       O568   1.978       .  S
Zn559       O575   1.966       .  S
Zn560       O563   1.929       .  S
Zn560       O565   2.039       .  S
Zn560       O567   2.075       .  S
Zn560       O571   2.043       .  S
Zn561       O563   1.916       .  S
Zn561       O566   2.050       .  S
Zn561       O569   2.024       .  S
Zn561       O572   2.015       .  S
Zn562       O563   1.922       .  S
Zn562       O570   2.039       .  S
Zn562       O573   2.033       .  S
Zn562       O574   2.042       .  S
O564        C576   1.264       .  A
O565        C577   1.283       .  A
O566        C578   1.272       .  A
O567        C576   1.274       .  A
O568        C578   1.263       .  A
O569        C577   1.279       .  A
O570        C579   1.279       .  A
O571        C580   1.283       .  A
O572        C579   1.278       .  A
O573        C580   1.280       .  A
O574        C581   1.274       .  A
O575        C581   1.269       .  A
C577        C686   1.498       .  S
C579        C806   1.498       .  S
C580        C638   1.499       .  S
Zn582       O586   1.944       .  S
Zn582       O587   1.998       .  S
Zn582       O591   2.027       .  S
Zn582       O598   1.960       .  S
Zn583       O586   1.943       .  S
Zn583       O588   2.022       .  S
Zn583       O590   2.019       .  S
Zn583       O594   1.978       .  S
Zn584       O586   1.925       .  S
Zn584       O589   1.990       .  S
Zn584       O592   1.995       .  S
Zn584       O595   1.942       .  S
Zn585       O586   1.984       .  S
Zn585       O593   2.109       .  S
Zn585       O596   2.100       .  S
Zn585       O597   2.104       .  S
O587        C599   1.271       .  A
O588        C600   1.271       .  A
O589        C601   1.268       .  A
O590        C599   1.273       .  A
O591        C601   1.270       .  A
O592        C600   1.267       .  A
O593        C602   1.286       .  A
O594        C603   1.271       .  A
O595        C602   1.268       .  A
O596        C603   1.286       .  A
O597        C604   1.284       .  A
O598        C604   1.268       .  A
C602        C758   1.489       .  S
C603        C614   1.480       .  S
C604        C854   1.483       .  S
C605        C606   1.415       .  A
C605        C610   1.408       .  A
C605        C619   1.443       .  S
C606        C611   1.494       .  S
C606        C607   1.401       .  A
C607        C608   1.401       .  A
C607        H626   1.084       .  S
C608        C609   1.416       .  A
C608        C620   1.445   1_455  S
C609        C610   1.404       .  A
C610        H625   1.084       .  S
C611        C612   1.407       .  A
C611        C616   1.411       .  A
C612        C613   1.407       .  A
C612        H627   1.085       .  S
C613        C614   1.411       .  A
C613        C617   1.443       .  S
C614        C615   1.405       .  A
C615        C616   1.403       .  A
C615        H628   1.085       .  S
C616        C618   1.444       .  S
C617        N621   1.157       .  T
C618        N622   1.157       .  T
C619        N624   1.157       .  T
C620        N623   1.157       .  T
C629        C630   1.413       .  A
C629        C634   1.406       .  A
C629        C643   1.443       .  S
C630        C635   1.490       .  S
C630        C631   1.400       .  A
C631        C632   1.398       .  A
C631        H650   1.086       .  S
C632        C633   1.418       .  A
C632        C644   1.445   1_655  S
C633        C634   1.405       .  A
C634        H649   1.085       .  S
C635        C636   1.402       .  A
C635        C640   1.409       .  A
C636        C637   1.404       .  A
C636        H651   1.086       .  S
C637        C638   1.421       .  A
C637        C641   1.444       .  S
C638        C639   1.410       .  A
C639        C640   1.402       .  A
C639        H652   1.084       .  S
C640        C642   1.444       .  S
C641        N645   1.157       .  T
C642        N646   1.157       .  T
C643        N648   1.157       .  T
C644        N647   1.157       .  T
C653        C654   1.410       .  A
C653        C658   1.399       .  A
C653        C667   1.444       .  S
C654        C659   1.491       .  S
C654        C655   1.407       .  A
C655        C656   1.406       .  A
C655        H674   1.084       .  S
C656        C657   1.410       .  A
C656        C668   1.443       .  S
C657        C658   1.404       .  A
C658        H673   1.085       .  S
C659        C660   1.401       .  A
C659        C664   1.414       .  A
C660        C661   1.399       .  A
C660        H675   1.085       .  S
C661        C662   1.415       .  A
C661        C665   1.446       .  S
C662        C663   1.402       .  A
C663        C664   1.407       .  A
C663        H676   1.084       .  S
C664        C666   1.443       .  S
C665        N669   1.157       .  T
C666        N670   1.157       .  T
C667        N672   1.157       .  T
C668        N671   1.157       .  T
C677        C678   1.411       .  A
C677        C682   1.399       .  A
C677        C691   1.445       .  S
C678        C683   1.493       .  S
C678        C679   1.408       .  A
C679        C680   1.406       .  A
C679        H698   1.085       .  S
C680        C681   1.412       .  A
C680        C692   1.443       .  S
C681        C682   1.407       .  A
C682        H697   1.085       .  S
C683        C684   1.403       .  A
C683        C688   1.411       .  A
C684        C685   1.402       .  A
C684        H699   1.085       .  S
C685        C686   1.421       .  A
C685        C689   1.445       .  S
C686        C687   1.410       .  A
C687        C688   1.402       .  A
C687        H700   1.084       .  S
C688        C690   1.444       .  S
C689        N693   1.158       .  T
C690        N694   1.157       .  T
C691        N696   1.157       .  T
C692        N695   1.157       .  T
C701        C702   1.408       .  A
C701        C706   1.398       .  A
C701        C715   1.445       .  S
C702        C707   1.497       .  S
C702        C703   1.411       .  A
C703        C704   1.408       .  A
C703        H722   1.084       .  S
C704        C705   1.412       .  A
C704        C716   1.442       .  S
C705        C706   1.411       .  A
C706        H721   1.085       .  S
C707        C708   1.411       .  A
C707        C712   1.408       .  A
C708        C709   1.410       .  A
C708        H723   1.084       .  S
C709        C710   1.413       .  A
C709        C713   1.443       .  S
C710        C711   1.409       .  A
C711        C712   1.396       .  A
C711        H724   1.085       .  S
C712        C714   1.445       .  S
C713        N717   1.157       .  T
C714        N718   1.157       .  T
C715        N720   1.157       .  T
C716        N719   1.157       .  T
C725        C726   1.408       .  A
C725        C730   1.398       .  A
C725        C739   1.444       .  S
C726        C731   1.490       .  S
C726        C727   1.408       .  A
C727        C728   1.407       .  A
C727        H746   1.085       .  S
C728        C729   1.411       .  A
C728        C740   1.443       .  S
C729        C730   1.406       .  A
C730        H745   1.086       .  S
C731        C732   1.409       .  A
C731        C736   1.404       .  A
C732        C733   1.409       .  A
C732        H747   1.085       .  S
C733        C734   1.414       .  A
C733        C737   1.443       .  S
C734        C735   1.414       .  A
C735        C736   1.396       .  A
C735        H748   1.084       .  S
C736        C738   1.445       .  S
C737        N741   1.157       .  T
C738        N742   1.157       .  T
C739        N744   1.157       .  T
C740        N743   1.157       .  T
C749        C750   1.415       .  A
C749        C754   1.406       .  A
C749        C763   1.444       .  S
C750        C755   1.486       .  S
C750        C751   1.397       .  A
C751        C752   1.398       .  A
C751        H770   1.086       .  S
C752        C753   1.418       .  A
C752        C764   1.445       .  S
C753        C754   1.403       .  A
C754        H769   1.085       .  S
C755        C756   1.409       .  A
C755        C760   1.404       .  A
C756        C757   1.410       .  A
C756        H771   1.085       .  S
C757        C758   1.412       .  A
C757        C761   1.442       .  S
C758        C759   1.411       .  A
C759        C760   1.395       .  A
C759        H772   1.085       .  S
C760        C762   1.445       .  S
C761        N765   1.157       .  T
C762        N766   1.157       .  T
C763        N768   1.157       .  T
C764        N767   1.157       .  T
C773        C774   1.404       .  A
C773        C778   1.396       .  A
C773        C787   1.445       .  S
C774        C779   1.485       .  S
C774        C775   1.406       .  A
C775        C776   1.407       .  A
C775        H794   1.085       .  S
C776        C777   1.415       .  A
C776        C788   1.442       .  S
C777        C778   1.412       .  A
C778        H793   1.083       .  S
C779        C780   1.407       .  A
C779        C784   1.407       .  A
C780        C781   1.406       .  A
C780        H795   1.085       .  S
C781        C782   1.411       .  A
C781        C785   1.443       .  S
C782        C783   1.406       .  A
C783        C784   1.397       .  A
C783        H796   1.085       .  S
C784        C786   1.445       .  S
C785        N789   1.157       .  T
C786        N790   1.157       .  T
C787        N792   1.157       .  T
C788        N791   1.157       .  T
C797        C798   1.406       .  A
C797        C802   1.395       .  A
C797        C811   1.445       .  S
C798        C803   1.488       .  S
C798        C799   1.406       .  A
C799        C800   1.408       .  A
C799        H818   1.085       .  S
C800        C801   1.418       .  A
C800        C812   1.443       .  S
C801        C802   1.411       .  A
C802        H817   1.084       .  S
C803        C804   1.403       .  A
C803        C808   1.407       .  A
C804        C805   1.403       .  A
C804        H819   1.085       .  S
C805        C806   1.421       .  A
C805        C809   1.444       .  S
C806        C807   1.412       .  A
C807        C808   1.400       .  A
C807        H820   1.084       .  S
C808        C810   1.444       .  S
C809        N813   1.157       .  T
C810        N814   1.157       .  T
C811        N816   1.157       .  T
C812        N815   1.158       .  T
C821        C822   1.404       .  A
C821        C826   1.398       .  A
C821        C835   1.444       .  S
C822        C827   1.485       .  S
C822        C823   1.405       .  A
C823        C824   1.407       .  A
C823        H842   1.085       .  S
C824        C825   1.415       .  A
C824        C836   1.443       .  S
C825        C826   1.410       .  A
C826        H841   1.085       .  S
C827        C828   1.405       .  A
C827        C832   1.407       .  A
C828        C829   1.406       .  A
C828        H843   1.084       .  S
C829        C830   1.411       .  A
C829        C833   1.443       .  S
C830        C831   1.407       .  A
C831        C832   1.399       .  A
C831        H844   1.085       .  S
C832        C834   1.444       .  S
C833        N837   1.157       .  T
C834        N838   1.157       .  T
C835        N840   1.157       .  T
C836        N839   1.157       .  T
C845        C846   1.414       .  A
C845        C850   1.409       .  A
C845        C859   1.443       .  S
C846        C851   1.490       .  S
C846        C847   1.399       .  A
C847        C848   1.400       .  A
C847        H866   1.086       .  S
C848        C849   1.417       .  A
C848        C860   1.445   1_545  S
C849        C850   1.404       .  A
C850        H865   1.085       .  S
C851        C852   1.408       .  A
C851        C856   1.407       .  A
C852        C853   1.411       .  A
C852        H867   1.085       .  S
C853        C854   1.411       .  A
C853        C857   1.443       .  S
C854        C855   1.406       .  A
C855        C856   1.398       .  A
C855        H868   1.086       .  S
C856        C858   1.444       .  S
C857        N861   1.157       .  T
C858        N862   1.157       .  T
C859        N864   1.157       .  T
C860        N863   1.157       .  T
C869        C870   1.406       .  A
C869        C874   1.396       .  A
C869        C883   1.444       .  S
C870        C875   1.489       .  S
C870        C871   1.407       .  A
C871        C872   1.406       .  A
C871        H890   1.085       .  S
C872        C873   1.415       .  A
C872        C884   1.443       .  S
C873        C874   1.411       .  A
C874        H889   1.084       .  S
C875        C876   1.408       .  A
C875        C880   1.407       .  A
C876        C877   1.408       .  A
C876        H891   1.085       .  S
C877        C878   1.411       .  A
C877        C881   1.442       .  S
C878        C879   1.408       .  A
C879        C880   1.397       .  A
C879        H892   1.086       .  S
C880        C882   1.445       .  S
C881        N885   1.157       .  T
C882        N886   1.157       .  T
C883        N888   1.157       .  T
C884        N887   1.157       .  T
C893        C894   1.407       .  A
C893        C898   1.400       .  A
C893        C907   1.444       .  S
C894        C899   1.492       .  S
C894        C895   1.406       .  A
C895        C896   1.405       .  A
C895        H914   1.085       .  S
C896        C897   1.417       .  A
C896        C908   1.443       .  S
C897        C898   1.412       .  A
C898        H913   1.085       .  S
C899        C900   1.408       .  A
C899        C904   1.409       .  A
C900        C901   1.406       .  A
C900        H915   1.085       .  S
C901        C902   1.411       .  A
C901        C905   1.443       .  S
C902        C903   1.406       .  A
C903        C904   1.398       .  A
C903        H916   1.086       .  S
C904        C906   1.444       .  S
C905        N909   1.157       .  T
C906        N910   1.157       .  T
C907        N912   1.157       .  T
C908        N911   1.157       .  T
C917        C918   1.413       .  A
C917        C922   1.407       .  A
C917        C931   1.443       .  S
C918        C923   1.490       .  S
C918        C919   1.398       .  A
C919        C920   1.399       .  A
C919        H938   1.085       .  S
C920        C921   1.421       .  A
C920        C932   1.445       .  S
C921        C922   1.407       .  A
C922        H937   1.084       .  S
C923        C924   1.402       .  A
C923        C928   1.409       .  A
C924        C925   1.405       .  A
C924        H939   1.085       .  S
C925        C926   1.422       .  A
C925        C929   1.444       .  S
C926        C927   1.411       .  A
C927        C928   1.401       .  A
C927        H940   1.085       .  S
C928        C930   1.444       .  S
C929        N933   1.157       .  T
C930        N934   1.157       .  T
C931        N936   1.157       .  T
C932        N935   1.157       .  T
C941        C942   1.404       .  A
C941        C946   1.394       .  A
C941        C955   1.445       .  S
C942        C947   1.484       .  S
C942        C943   1.404       .  A
C943        C944   1.408       .  A
C943        H962   1.085       .  S
C944        C945   1.419       .  A
C944        C956   1.443       .  S
C945        C946   1.412       .  A
C946        H961   1.084       .  S
C947        C948   1.400       .  A
C947        C952   1.407       .  A
C948        C949   1.399       .  A
C948        H963   1.086       .  S
C949        C950   1.420       .  A
C949        C953   1.444       .  S
C950        C951   1.411       .  A
C951        C952   1.403       .  A
C951        H964   1.085       .  S
C952        C954   1.444       .  S
C953        N957   1.157       .  T
C954        N958   1.157       .  T
C955        N960   1.157       .  T
C956        N959   1.157       .  T
C965        C966   1.411       .  A
C965        C970   1.399       .  A
C965        C979   1.445       .  S
C966        C971   1.492       .  S
C966        C967   1.407       .  A
C967        C968   1.407       .  A
C967        H986   1.085       .  S
C968        C969   1.409       .  A
C968        C980   1.443       .  S
C969        C970   1.404       .  A
C970        H985   1.085       .  S
C971        C972   1.400       .  A
C971        C976   1.415       .  A
C972        C973   1.397       .  A
C972        H987   1.086       .  S
C973        C974   1.416       .  A
C973        C977   1.445       .  S
C974        C975   1.405       .  A
C975        C976   1.409       .  A
C975        H988   1.085       .  S
C976        C978   1.443       .  S
C977        N981   1.157       .  T
C978        N982   1.157       .  T
C979        N984   1.157       .  T
C980        N983   1.157       .  T
C989        C990   1.414       .  A
C989        C994   1.407       .  A
C989       C1003   1.444       .  S
C990        C995   1.490       .  S
C990        C991   1.398       .  A
C991        C992   1.399       .  A
C991       H1010   1.086       .  S
C992        C993   1.420       .  A
C992       C1004   1.445       .  S
C993        C994   1.406       .  A
C994       H1009   1.085       .  S
C995        C996   1.398       .  A
C995       C1000   1.415       .  A
C996        C997   1.399       .  A
C996       H1011   1.086       .  S
C997        C998   1.420       .  A
C997       C1001   1.446       .  S
C998        C999   1.404       .  A
C999       C1000   1.408       .  A
C999       H1012   1.085       .  S
C1000      C1002   1.443       .  S
C1001      N1005   1.157       .  T
C1002      N1006   1.157       .  T
C1003      N1008   1.157       .  T
C1004      N1007   1.157       .  T
C1013      C1014   1.413       .  A
C1013      C1018   1.409       .  A
C1013      C1027   1.442       .  S
C1014      C1019   1.490       .  S
C1014      C1015   1.399       .  A
C1015      C1016   1.401       .  A
C1015      H1034   1.086       .  S
C1016      C1017   1.419       .  A
C1016      C1028   1.445       .  S
C1017      C1018   1.405       .  A
C1018      H1033   1.085       .  S
C1019      C1020   1.399       .  A
C1019      C1024   1.414       .  A
C1020      C1021   1.399       .  A
C1020      H1035   1.085       .  S
C1021      C1022   1.414       .  A
C1021      C1025   1.445       .  S
C1022      C1023   1.405       .  A
C1023      C1024   1.410       .  A
C1023      H1036   1.085       .  S
C1024      C1026   1.443       .  S
C1025      N1029   1.157       .  T
C1026      N1030   1.157       .  T
C1027      N1032   1.157       .  T
C1028      N1031   1.157       .  T
C1037      C1038   1.406       .  A
C1037      C1042   1.396       .  A
C1037      C1051   1.445       .  S
C1038      C1043   1.488       .  S
C1038      C1039   1.406       .  A
C1039      C1040   1.409       .  A
C1039      H1058   1.085       .  S
C1040      C1041   1.416       .  A
C1040      C1052   1.443       .  S
C1041      C1042   1.411       .  A
C1042      H1057   1.085       .  S
C1043      C1044   1.400       .  A
C1043      C1048   1.409       .  A
C1044      C1045   1.404       .  A
C1044      H1059   1.085       .  S
C1045      C1046   1.423       .  A
C1045      C1049   1.444       .  S
C1046      C1047   1.410       .  A
C1047      C1048   1.402       .  A
C1047      H1060   1.084       .  S
C1048      C1050   1.444       .  S
C1049      N1053   1.158       .  T
C1050      N1054   1.157       .  T
C1051      N1056   1.157       .  T
C1052      N1055   1.157       .  T
C1061      C1062   1.416       .  A
C1061      C1066   1.409       .  A
C1061      C1075   1.443       .  S
C1062      C1067   1.497       .  S
C1062      C1063   1.402       .  A
C1063      C1064   1.399       .  A
C1063      H1082   1.085       .  S
C1064      C1065   1.415       .  A
C1064      C1076   1.445       .  S
C1065      C1066   1.404       .  A
C1066      H1081   1.085       .  S
C1067      C1068   1.405       .  A
C1067      C1072   1.413       .  A
C1068      C1069   1.406       .  A
C1068      H1083   1.084       .  S
C1069      C1070   1.417       .  A
C1069      C1073   1.444       .  S
C1070      C1071   1.407       .  A
C1071      C1072   1.403       .  A
C1071      H1084   1.084       .  S
C1072      C1074   1.444       .  S
C1073      N1077   1.157       .  T
C1074      N1078   1.157       .  T
C1075      N1080   1.157       .  T
C1076      N1079   1.157       .  T
C1085      C1086   1.412       .  A
C1085      C1090   1.404       .  A
C1085      C1099   1.443       .  S
C1086      C1091   1.482       .  S
C1086      C1087   1.398       .  A
C1087      C1088   1.398       .  A
C1087      H1106   1.086       .  S
C1088      C1089   1.417       .  A
C1088      C1100   1.445       .  S
C1089      C1090   1.403       .  A
C1090      H1105   1.085       .  S
C1091      C1092   1.406       .  A
C1091      C1096   1.404       .  A
C1092      C1093   1.409       .  A
C1092      H1107   1.084       .  S
C1093      C1094   1.414       .  A
C1093      C1097   1.443       .  S
C1094      C1095   1.410       .  A
C1095      C1096   1.394       .  A
C1095      H1108   1.085       .  S
C1096      C1098   1.445       .  S
C1097      N1101   1.157       .  T
C1098      N1102   1.157       .  T
C1099      N1104   1.157       .  T
C1100      N1103   1.157       .  T
C1109      C1110   1.409       .  A
C1109      C1114   1.400       .  A
C1109      C1123   1.444       .  S
C1110      C1115   1.490       .  S
C1110      C1111   1.404       .  A
C1111      C1112   1.403       .  A
C1111      H1130   1.085       .  S
C1112      C1113   1.417       .  A
C1112      C1124   1.444       .  S
C1113      C1114   1.409       .  A
C1114      H1129   1.085       .  S
C1115      C1116   1.407       .  A
C1115      C1120   1.406       .  A
C1116      C1117   1.408       .  A
C1116      H1131   1.085       .  S
C1117      C1118   1.417       .  A
C1117      C1121   1.442       .  S
C1118      C1119   1.413       .  A
C1119      C1120   1.395       .  A
C1119      H1132   1.084       .  S
C1120      C1122   1.445       .  S
C1121      N1125   1.157       .  T
C1122      N1126   1.157       .  T
C1123      N1128   1.157       .  T
C1124      N1127   1.157       .  T
C1133      C1134   1.412       .  A
C1133      C1138   1.405       .  A
C1133      C1147   1.443       .  S
C1134      C1139   1.486       .  S
C1134      C1135   1.401       .  A
C1135      C1136   1.400       .  A
C1135      H1154   1.085       .  S
C1136      C1137   1.412       .  A
C1136      C1148   1.444       .  S
C1137      C1138   1.403       .  A
C1138      H1153   1.084       .  S
C1139      C1140   1.407       .  A
C1139      C1144   1.406       .  A
C1140      C1141   1.408       .  A
C1140      H1155   1.085       .  S
C1141      C1142   1.411       .  A
C1141      C1145   1.443       .  S
C1142      C1143   1.408       .  A
C1143      C1144   1.396       .  A
C1143      H1156   1.085       .  S
C1144      C1146   1.445       .  S
C1145      N1149   1.157       .  T
C1146      N1150   1.157       .  T
C1147      N1152   1.157       .  T
C1148      N1151   1.157       .  T
C1157      C1158   1.404       .  A
C1157      C1162   1.395       .  A
C1157      C1171   1.445       .  S
C1158      C1163   1.483       .  S
C1158      C1159   1.405       .  A
C1159      C1160   1.406       .  A
C1159      H1178   1.085       .  S
C1160      C1161   1.416       .  A
C1160      C1172   1.443       .  S
C1161      C1162   1.411       .  A
C1162      H1177   1.084       .  S
C1163      C1164   1.402       .  A
C1163      C1168   1.407       .  A
C1164      C1165   1.402       .  A
C1164      H1179   1.085       .  S
C1165      C1166   1.419       .  A
C1165      C1169   1.444       .  S
C1166      C1167   1.410       .  A
C1167      C1168   1.398       .  A
C1167      H1180   1.084       .  S
C1168      C1170   1.444       .  S
C1169      N1173   1.157       .  T
C1170      N1174   1.157       .  T
C1171      N1176   1.157       .  T
C1172      N1175   1.157       .  T
C1181      C1182   1.405       .  A
C1181      C1186   1.397       .  A
C1181      C1195   1.444       .  S
C1182      C1187   1.487       .  S
C1182      C1183   1.406       .  A
C1183      C1184   1.407       .  A
C1183      H1202   1.085       .  S
C1184      C1185   1.417       .  A
C1184      C1196   1.444       .  S
C1185      C1186   1.411       .  A
C1186      H1201   1.082       .  S
C1187      C1188   1.406       .  A
C1187      C1192   1.408       .  A
C1188      C1189   1.406       .  A
C1188      H1203   1.085       .  S
C1189      C1190   1.412       .  A
C1189      C1193   1.443       .  S
C1190      C1191   1.407       .  A
C1191      C1192   1.398       .  A
C1191      H1204   1.086       .  S
C1192      C1194   1.444       .  S
C1193      N1197   1.157       .  T
C1194      N1198   1.157       .  T
C1195      N1200   1.157       .  T
C1196      N1199   1.158       .  T
C1205      C1206   1.410       .  A
C1205      C1210   1.405       .  A
C1205      C1219   1.443       .  S
C1206      C1211   1.481       .  S
C1206      C1207   1.398       .  A
C1207      C1208   1.397       .  A
C1207      H1226   1.086       .  S
C1208      C1209   1.417       .  A
C1208      C1220   1.444       .  S
C1209      C1210   1.406       .  A
C1210      H1225   1.085       .  S
C1211      C1212   1.404       .  A
C1211      C1216   1.406       .  A
C1212      C1213   1.405       .  A
C1212      H1227   1.085       .  S
C1213      C1214   1.412       .  A
C1213      C1217   1.443       .  S
C1214      C1215   1.408       .  A
C1215      C1216   1.397       .  A
C1215      H1228   1.085       .  S
C1216      C1218   1.444       .  S
C1217      N1221   1.157       .  T
C1218      N1222   1.157       .  T
C1219      N1224   1.157       .  T
C1220      N1223   1.157       .  T
C1229      C1230   1.407       .  A
C1229      C1234   1.403       .  A
C1229      C1243   1.444       .  S
C1230      C1235   1.489       .  S
C1230      C1231   1.401       .  A
C1231      C1232   1.406       .  A
C1231      H1250   1.085       .  S
C1232      C1233   1.422       .  A
C1232      C1244   1.444       .  S
C1233      C1234   1.413       .  A
C1234      H1249   1.084       .  S
C1235      C1236   1.396       .  A
C1235      C1240   1.411       .  A
C1236      C1237   1.400       .  A
C1236      H1251   1.086       .  S
C1237      C1238   1.426       .  A
C1237      C1241   1.445       .  S
C1238      C1239   1.409       .  A
C1239      C1240   1.408       .  A
C1239      H1252   1.085       .  S
C1240      C1242   1.443       .  S
C1241      N1245   1.158   1_545  T
C1242      N1246   1.157       .  T
C1243      N1248   1.157       .  T
C1244      N1247   1.157       .  T
C1253      C1254   1.407       .  A
C1253      C1258   1.399       .  A
C1253      C1267   1.444       .  S
C1254      C1259   1.487       .  S
C1254      C1255   1.405       .  A
C1255      C1256   1.406       .  A
C1255      H1274   1.084       .  S
C1256      C1257   1.415       .  A
C1256      C1268   1.443       .  S
C1257      C1258   1.409       .  A
C1258      H1273   1.084       .  S
C1259      C1260   1.402       .  A
C1259      C1264   1.411       .  A
C1260      C1261   1.400       .  A
C1260      H1275   1.085       .  S
C1261      C1262   1.413       .  A
C1261      C1265   1.444   1_565  S
C1262      C1263   1.405       .  A
C1263      C1264   1.405       .  A
C1263      H1276   1.084       .  S
C1264      C1266   1.443       .  S
C1265      N1269   1.157       .  T
C1266      N1270   1.157       .  T
C1267      N1272   1.157       .  T
C1268      N1271   1.157       .  T
C1277      C1278   1.408       .  A
C1277      C1282   1.404       .  A
C1277      C1291   1.444       .  S
C1278      C1283   1.484       .  S
C1278      C1279   1.400       .  A
C1279      C1280   1.400       .  A
C1279      H1298   1.085       .  S
C1280      C1281   1.418       .  A
C1280      C1292   1.444       .  S
C1281      C1282   1.409       .  A
C1282      H1297   1.084       .  S
C1283      C1284   1.398       .  A
C1283      C1288   1.411       .  A
C1284      C1285   1.399       .  A
C1284      H1299   1.085       .  S
C1285      C1286   1.419       .  A
C1285      C1289   1.445   1_565  S
C1286      C1287   1.405       .  A
C1287      C1288   1.405       .  A
C1287      H1300   1.084       .  S
C1288      C1290   1.443       .  S
C1289      N1293   1.157       .  T
C1290      N1294   1.157       .  T
C1291      N1296   1.157       .  T
C1292      N1295   1.157       .  T
C1301      C1302   1.404       .  A
C1301      C1306   1.396       .  A
C1301      C1315   1.445       .  S
C1302      C1307   1.492       .  S
C1302      C1303   1.407       .  A
C1303      C1304   1.409       .  A
C1303      H1322   1.085       .  S
C1304      C1305   1.419       .  A
C1304      C1316   1.443       .  S
C1305      C1306   1.413       .  A
C1306      H1321   1.082       .  S
C1307      C1308   1.408       .  A
C1307      C1312   1.409       .  A
C1308      C1309   1.406       .  A
C1308      H1323   1.084       .  S
C1309      C1310   1.410       .  A
C1309      C1313   1.443       .  S
C1310      C1311   1.407       .  A
C1311      C1312   1.400       .  A
C1311      H1324   1.085       .  S
C1312      C1314   1.444       .  S
C1313      N1317   1.157       .  T
C1314      N1318   1.157       .  T
C1315      N1320   1.157       .  T
C1316      N1319   1.158       .  T
C1325      C1326   1.407       .  A
C1325      C1330   1.397       .  A
C1325      C1339   1.445       .  S
C1326      C1331   1.490       .  S
C1326      C1327   1.406       .  A
C1327      C1328   1.408       .  A
C1327      H1346   1.085       .  S
C1328      C1329   1.416       .  A
C1328      C1340   1.443       .  S
C1329      C1330   1.410       .  A
C1330      H1345   1.085   1_545  S
C1331      C1332   1.402       .  A
C1331      C1336   1.409       .  A
C1332      C1333   1.405       .  A
C1332      H1347   1.085       .  S
C1333      C1334   1.421       .  A
C1333      C1337   1.444       .  S
C1334      C1335   1.410       .  A
C1335      C1336   1.401       .  A
C1335      H1348   1.084       .  S
C1336      C1338   1.444       .  S
C1337      N1341   1.157       .  T
C1338      N1342   1.157       .  T
C1339      N1344   1.157       .  T
C1340      N1343   1.157       .  T
C1349      C1350   1.411       .  A
C1349      C1354   1.401       .  A
C1349      C1363   1.444       .  S
C1350      C1355   1.487       .  S
C1350      C1351   1.401       .  A
C1351      C1352   1.401       .  A
C1351      H1370   1.085       .  S
C1352      C1353   1.419       .  A
C1352      C1364   1.445       .  S
C1353      C1354   1.406       .  A
C1354      H1369   1.085       .  S
C1355      C1356   1.406       .  A
C1355      C1360   1.410       .  A
C1356      C1357   1.402       .  A
C1356      H1371   1.085       .  S
C1357      C1358   1.409       .  A
C1357      C1361   1.443       .  S
C1358      C1359   1.404       .  A
C1359      C1360   1.399       .  A
C1359      H1372   1.085       .  S
C1360      C1362   1.444       .  S
C1361      N1365   1.157       .  T
C1362      N1366   1.157       .  T
C1363      N1368   1.157       .  T
C1364      N1367   1.157       .  T
C1373      C1374   1.410       .  A
C1373      C1378   1.404       .  A
C1373      C1387   1.443       .  S
C1374      C1379   1.480       .  S
C1374      C1375   1.398       .  A
C1375      C1376   1.397       .  A
C1375      H1394   1.085       .  S
C1376      C1377   1.415       .  A
C1376      C1388   1.444       .  S
C1377      C1378   1.405       .  A
C1378      H1393   1.085       .  S
C1379      C1380   1.399       .  A
C1379      C1384   1.411       .  A
C1380      C1381   1.399       .  A
C1380      H1395   1.085       .  S
C1381      C1382   1.416       .  A
C1381      C1385   1.445       .  S
C1382      C1383   1.403       .  A
C1383      C1384   1.403       .  A
C1383      H1396   1.085       .  S
C1384      C1386   1.443       .  S
C1385      N1389   1.157       .  T
C1386      N1390   1.157       .  T
C1387      N1392   1.157       .  T
C1388      N1391   1.157       .  T
C1397      C1398   1.407       .  A
C1397      C1402   1.400       .  A
C1397      C1411   1.445       .  S
C1398      C1403   1.489       .  S
C1398      C1399   1.406       .  A
C1399      C1400   1.406       .  A
C1399      H1418   1.085       .  S
C1400      C1401   1.414       .  A
C1400      C1412   1.443       .  S
C1401      C1402   1.410       .  A
C1402      H1417   1.084   1_554  S
C1403      C1404   1.402       .  A
C1403      C1408   1.409       .  A
C1404      C1405   1.404       .  A
C1404      H1419   1.085       .  S
C1405      C1406   1.421       .  A
C1405      C1409   1.444       .  S
C1406      C1407   1.409       .  A
C1407      C1408   1.401       .  A
C1407      H1420   1.084       .  S
C1408      C1410   1.444       .  S
C1409      N1413   1.158       .  T
C1410      N1414   1.157       .  T
C1411      N1416   1.157       .  T
C1412      N1415   1.157       .  T
C1421      C1422   1.405       .  A
C1421      C1426   1.399       .  A
C1421      C1435   1.444       .  S
C1422      C1427   1.490       .  S
C1422      C1423   1.405       .  A
C1423      C1424   1.411       .  A
C1423      H1442   1.085       .  S
C1424      C1425   1.420       .  A
C1424      C1436   1.443       .  S
C1425      C1426   1.412       .  A
C1426      H1441   1.084       .  S
C1427      C1428   1.400       .  A
C1427      C1432   1.408       .  A
C1428      C1429   1.403       .  A
C1428      H1443   1.085       .  S
C1429      C1430   1.421       .  A
C1429      C1433   1.444       .  S
C1430      C1431   1.412       .  A
C1431      C1432   1.406       .  A
C1431      H1444   1.084       .  S
C1432      C1434   1.444       .  S
C1433      N1437   1.157       .  T
C1434      N1438   1.157       .  T
C1435      N1440   1.157       .  T
C1436      N1439   1.157       .  T
C1445      C1446   1.412       .  A
C1445      C1450   1.406       .  A
C1445      C1459   1.443       .  S
C1446      C1451   1.491       .  S
C1446      C1447   1.402       .  A
C1447      C1448   1.404       .  A
C1447      H1466   1.085       .  S
C1448      C1449   1.415       .  A
C1448      C1460   1.444       .  S
C1449      C1450   1.404       .  A
C1450      H1465   1.085       .  S
C1451      C1452   1.399       .  A
C1451      C1456   1.412       .  A
C1452      C1453   1.402       .  A
C1452      H1467   1.086       .  S
C1453      C1454   1.419       .  A
C1453      C1457   1.445       .  S
C1454      C1455   1.406       .  A
C1455      C1456   1.410       .  A
C1455      H1468   1.085       .  S
C1456      C1458   1.443       .  S
C1457      N1461   1.157       .  T
C1458      N1462   1.157       .  T
C1459      N1464   1.157       .  T
C1460      N1463   1.157       .  T
C1469      C1470   1.413       .  A
C1469      C1474   1.406       .  A
C1469      C1483   1.444       .  S
C1470      C1475   1.485       .  S
C1470      C1471   1.397       .  A
C1471      C1472   1.399       .  A
C1471      H1490   1.085       .  S
C1472      C1473   1.421       .  A
C1472      C1484   1.445   1_554  S
C1473      C1474   1.405       .  A
C1474      H1489   1.085       .  S
C1475      C1476   1.406       .  A
C1475      C1480   1.407       .  A
C1476      C1477   1.407       .  A
C1476      H1491   1.085       .  S
C1477      C1478   1.411       .  A
C1477      C1481   1.442       .  S
C1478      C1479   1.408       .  A
C1479      C1480   1.397       .  A
C1479      H1492   1.086       .  S
C1480      C1482   1.445       .  S
C1481      N1485   1.157       .  T
C1482      N1486   1.157       .  T
C1483      N1488   1.157       .  T
C1484      N1487   1.157       .  T
C1493      C1494   1.412       .  A
C1493      C1498   1.404       .  A
C1493      C1507   1.444       .  S
C1494      C1499   1.485       .  S
C1494      C1495   1.399       .  A
C1495      C1496   1.399       .  A
C1495      H1514   1.086       .  S
C1496      C1497   1.417       .  A
C1496      C1508   1.445   1_556  S
C1497      C1498   1.405       .  A
C1498      H1513   1.085       .  S
C1499      C1500   1.401       .  A
C1499      C1504   1.408       .  A
C1500      C1501   1.402       .  A
C1500      H1515   1.085       .  S
C1501      C1502   1.418       .  A
C1501      C1505   1.444       .  S
C1502      C1503   1.411       .  A
C1503      C1504   1.402       .  A
C1503      H1516   1.085       .  S
C1504      C1506   1.444       .  S
C1505      N1509   1.157       .  T
C1506      N1510   1.157       .  T
C1507      N1512   1.157       .  T
C1508      N1511   1.157       .  T
C1517      C1518   1.409       .  A
C1517      C1522   1.406       .  A
C1517      C1531   1.444       .  S
C1518      C1523   1.492       .  S
C1518      C1519   1.402       .  A
C1519      C1520   1.403       .  A
C1519      H1538   1.085       .  S
C1520      C1521   1.419       .  A
C1520      C1532   1.444       .  S
C1521      C1522   1.411       .  A
C1522      H1537   1.084       .  S
C1523      C1524   1.400       .  A
C1523      C1528   1.412       .  A
C1524      C1525   1.402       .  A
C1524      H1539   1.085       .  S
C1525      C1526   1.418       .  A
C1525      C1529   1.445   1_655  S
C1526      C1527   1.405       .  A
C1527      C1528   1.407       .  A
C1527      H1540   1.084       .  S
C1528      C1530   1.442       .  S
C1529      N1533   1.157       .  T
C1530      N1534   1.157       .  T
C1531      N1536   1.157       .  T
C1532      N1535   1.157       .  T
C1541      C1542   1.414       .  A
C1541      C1546   1.403       .  A
C1541      C1555   1.444       .  S
C1542      C1547   1.495       .  S
C1542      C1543   1.403       .  A
C1543      C1544   1.405       .  A
C1543      H1562   1.085       .  S
C1544      C1545   1.417       .  A
C1544      C1556   1.444       .  S
C1545      C1546   1.405       .  A
C1546      H1561   1.085       .  S
C1547      C1548   1.406       .  A
C1547      C1552   1.408       .  A
C1548      C1549   1.410       .  A
C1548      H1563   1.085       .  S
C1549      C1550   1.418       .  A
C1549      C1553   1.442       .  S
C1550      C1551   1.410       .  A
C1551      C1552   1.398       .  A
C1551      H1564   1.085       .  S
C1552      C1554   1.445       .  S
C1553      N1557   1.157       .  T
C1554      N1558   1.157       .  T
C1555      N1560   1.157       .  T
C1556      N1559   1.157       .  T
C1565      C1566   1.405       .  A
C1565      C1570   1.398       .  A
C1565      C1579   1.444       .  S
C1566      C1571   1.485       .  S
C1566      C1567   1.403       .  A
C1567      C1568   1.406       .  A
C1567      H1586   1.085       .  S
C1568      C1569   1.420       .  A
C1568      C1580   1.443       .  S
C1569      C1570   1.412       .  A
C1570      H1585   1.084       .  S
C1571      C1572   1.400       .  A
C1571      C1576   1.406       .  A
C1572      C1573   1.406       .  A
C1572      H1587   1.085       .  S
C1573      C1574   1.423       .  A
C1573      C1577   1.444       .  S
C1574      C1575   1.411       .  A
C1575      C1576   1.400       .  A
C1575      H1588   1.084       .  S
C1576      C1578   1.444       .  S
C1577      N1581   1.157       .  T
C1578      N1582   1.157       .  T
C1579      N1584   1.157       .  T
C1580      N1583   1.157       .  T
C1589      C1590   1.406       .  A
C1589      C1594   1.402       .  A
C1589      C1603   1.443       .  S
C1590      C1595   1.486       .  S
C1590      C1591   1.403       .  A
C1591      C1592   1.404       .  A
C1591      H1610   1.085       .  S
C1592      C1593   1.415       .  A
C1592      C1604   1.443       .  S
C1593      C1594   1.410       .  A
C1594      H1609   1.085       .  S
C1595      C1596   1.399       .  A
C1595      C1600   1.411       .  A
C1596      C1597   1.400       .  A
C1596      H1611   1.085       .  S
C1597      C1598   1.417       .  A
C1597      C1601   1.445   1_556  S
C1598      C1599   1.405       .  A
C1599      C1600   1.406       .  A
C1599      H1612   1.085       .  S
C1600      C1602   1.443       .  S
C1601      N1605   1.157       .  T
C1602      N1606   1.157       .  T
C1603      N1608   1.157       .  T
C1604      N1607   1.157       .  T
C1613      C1614   1.408       .  A
C1613      C1618   1.398       .  A
C1613      C1627   1.445       .  S
C1614      C1619   1.493       .  S
C1614      C1615   1.408       .  A
C1615      C1616   1.409       .  A
C1615      H1634   1.085       .  S
C1616      C1617   1.413       .  A
C1616      C1628   1.442       .  S
C1617      C1618   1.410       .  A
C1618      H1633   1.085       .  S
C1619      C1620   1.407       .  A
C1619      C1624   1.408       .  A
C1620      C1621   1.406       .  A
C1620      H1635   1.085       .  S
C1621      C1622   1.414       .  A
C1621      C1625   1.443       .  S
C1622      C1623   1.410       .  A
C1623      C1624   1.400       .  A
C1623      H1636   1.085       .  S
C1624      C1626   1.444       .  S
C1625      N1629   1.157       .  T
C1626      N1630   1.157       .  T
C1627      N1632   1.157       .  T
C1628      N1631   1.157       .  T
C1637      C1638   1.407       .  A
C1637      C1642   1.399       .  A
C1637      C1651   1.444       .  S
C1638      C1643   1.488       .  S
C1638      C1639   1.406       .  A
C1639      C1640   1.406       .  A
C1639      H1658   1.085       .  S
C1640      C1641   1.413       .  A
C1640      C1652   1.443       .  S
C1641      C1642   1.407       .  A
C1642      H1657   1.085       .  S
C1643      C1644   1.405       .  A
C1643      C1648   1.405       .  A
C1644      C1645   1.408       .  A
C1644      H1659   1.085       .  S
C1645      C1646   1.419       .  A
C1645      C1649   1.443       .  S
C1646      C1647   1.412       .  A
C1647      C1648   1.398       .  A
C1647      H1660   1.085       .  S
C1648      C1650   1.445       .  S
C1649      N1653   1.158       .  T
C1650      N1654   1.157       .  T
C1651      N1656   1.157       .  T
C1652      N1655   1.157       .  T
C1661      C1662   1.405       .  A
C1661      C1666   1.397       .  A
C1661      C1675   1.445       .  S
C1662      C1667   1.482       .  S
C1662      C1663   1.405       .  A
C1663      C1664   1.407       .  A
C1663      H1682   1.085       .  S
C1664      C1665   1.412       .  A
C1664      C1676   1.443       .  S
C1665      C1666   1.409       .  A
C1666      H1681   1.085       .  S
C1667      C1668   1.405       .  A
C1667      C1672   1.405       .  A
C1668      C1669   1.405       .  A
C1668      H1683   1.085       .  S
C1669      C1670   1.412       .  A
C1669      C1673   1.443       .  S
C1670      C1671   1.408       .  A
C1671      C1672   1.397       .  A
C1671      H1684   1.085   1_554  S
C1672      C1674   1.444       .  S
C1673      N1677   1.157       .  T
C1674      N1678   1.157       .  T
C1675      N1680   1.157       .  T
C1676      N1679   1.157       .  T
C1685      C1686   1.404       .  A
C1685      C1690   1.394       .  A
C1685      C1699   1.446       .  S
C1686      C1691   1.486       .  S
C1686      C1687   1.406       .  A
C1687      C1688   1.407       .  A
C1687      H1706   1.085       .  S
C1688      C1689   1.419       .  A
C1688      C1700   1.443       .  S
C1689      C1690   1.413       .  A
C1690      H1705   1.084       .  S
C1691      C1692   1.405       .  A
C1691      C1696   1.407       .  A
C1692      C1693   1.405       .  A
C1692      H1707   1.085       .  S
C1693      C1694   1.415       .  A
C1693      C1697   1.443       .  S
C1694      C1695   1.410       .  A
C1695      C1696   1.396       .  A
C1695      H1708   1.085       .  S
C1696      C1698   1.445       .  S
C1697      N1701   1.157       .  T
C1698      N1702   1.157       .  T
C1699      N1704   1.157       .  T
C1700      N1703   1.158       .  T
C1709      C1710   1.409       .  A
C1709      C1714   1.401       .  A
C1709      C1723   1.444       .  S
C1710      C1715   1.494       .  S
C1710      C1711   1.407       .  A
C1711      C1712   1.407       .  A
C1711      H1730   1.085       .  S
C1712      C1713   1.414       .  A
C1712      C1724   1.443       .  S
C1713      C1714   1.408       .  A
C1714      H1729   1.085       .  S
C1715      C1716   1.402       .  A
C1715      C1720   1.410       .  A
C1716      C1717   1.405       .  A
C1716      H1731   1.085       .  S
C1717      C1718   1.422       .  A
C1717      C1721   1.444       .  S
C1718      C1719   1.410       .  A
C1719      C1720   1.405       .  A
C1719      H1732   1.084       .  S
C1720      C1722   1.444       .  S
C1721      N1725   1.157       .  T
C1722      N1726   1.157       .  T
C1723      N1728   1.157       .  T
C1724      N1727   1.157       .  T
C1733      C1734   1.407       .  A
C1733      C1738   1.398       .  A
C1733      C1747   1.444       .  S
C1734      C1739   1.484       .  S
C1734      C1735   1.404       .  A
C1735      C1736   1.406       .  A
C1735      H1754   1.085       .  S
C1736      C1737   1.415       .  A
C1736      C1748   1.443       .  S
C1737      C1738   1.406       .  A
C1738      H1753   1.085       .  S
C1739      C1740   1.402       .  A
C1739      C1744   1.407       .  A
C1740      C1741   1.404       .  A
C1740      H1755   1.085       .  S
C1741      C1742   1.415       .  A
C1741      C1745   1.443       .  S
C1742      C1743   1.408       .  A
C1743      C1744   1.401       .  A
C1743      H1756   1.085       .  S
C1744      C1746   1.444       .  S
C1745      N1749   1.157       .  T
C1746      N1750   1.157       .  T
C1747      N1752   1.157       .  T
C1748      N1751   1.157       .  T
