geometry optimzed in LAMMPS
_audit_creation_date              2020-11-30 
_audit_creation_method            'lammps2cif' 
_symmetry_space_group_name_H-M    'P1' 
_symmetry_Int_Tables_number       1 
_symmetry_cell_setting            triclinic 
loop_ 
_symmetry_equiv_pos_as_xyz 
  x,y,z 
_cell_length_a                    35.43825217 
_cell_length_b                    35.369618188630454 
_cell_length_c                    87.23406520805742 
_cell_angle_alpha                 90.02953806120571 
_cell_angle_beta                  90.0219285950019 
_cell_angle_gamma                 120.13903588839366 
loop_ 
_atom_site_label 
_atom_site_type_symbol 
_atom_site_fract_x 
_atom_site_fract_y 
_atom_site_fract_z 
_atom_site_charge 
C1          C  0.64468438  0.09210935  0.71547361     0.03600
C2          C  0.61047191  0.04953380  0.71286616    -0.12600
C3          C  0.61414026  0.02363001  0.70155174     0.01100
C4          C  0.65225995  0.03996893  0.69282796    -0.11100
C5          C  0.68665099  0.08354789  0.69453630     0.03600
C6          C  0.68207929  0.10920199  0.70616422    -0.10500
H7          H  0.58130510  0.03613808  0.71987346     0.09200
H8          H  0.65399137  0.01787239  0.68472557     0.06700
H9          H  0.70667835  0.14277806  0.70815714     0.06600
C10         C  0.76421193  0.09733245  0.66112264     0.03600
C11         C  0.79999768  0.13810963  0.66463336    -0.12600
C12         C  0.79953849  0.16096334  0.67753637     0.01100
C13         C  0.76379149  0.14269334  0.68746079    -0.11100
C14         C  0.72630934  0.10194959  0.68418202     0.03600
C15         C  0.72733051  0.07962449  0.67072328    -0.10500
H16         H  0.82877651  0.15198513  0.65740929     0.09200
H17         H  0.76636524  0.16100521  0.69767080     0.06700
H18         H  0.69978973  0.04888969  0.66723353     0.06600
C19         C  0.48833657  0.76238237  0.83147219     0.03600
C20         C  0.49178001  0.80230283  0.83552124    -0.12600
C21         C  0.51184256  0.82312379  0.84928879     0.01100
C22         C  0.52692567  0.80276764  0.85941420    -0.11100
C23         C  0.52558251  0.76346258  0.85540543     0.03600
C24         C  0.50662125  0.74405914  0.84113565    -0.10500
H25         H  0.47913715  0.81742972  0.82785388     0.09200
H26         H  0.53975261  0.81815681  0.87037741     0.06700
H27         H  0.50634249  0.71499296  0.83717110     0.06600
C28         C  0.59327748  0.74865592  0.88688132     0.03600
C29         C  0.58010905  0.70449099  0.88487583    -0.12600
C30         C  0.54976573  0.67961803  0.87360363     0.01100
C31         C  0.53084359  0.69834540  0.86458077    -0.11100
C32         C  0.54416056  0.74310729  0.86591811     0.03600
C33         C  0.57620117  0.76813242  0.87710938    -0.10500
H34         H  0.59429062  0.68951827  0.89190003     0.09200
H35         H  0.50613499  0.67743226  0.85643939     0.06700
H36         H  0.58896492  0.80291637  0.87814294     0.06600
C37         C  0.82855767  0.42708680  0.49737226     0.03600
C38         C  0.82689829  0.46332072  0.50297331    -0.12600
C39         C  0.84648438  0.48270932  0.51690286     0.01100
C40         C  0.86442549  0.46318634  0.52605633    -0.11100
C41         C  0.86698572  0.42679304  0.52077087     0.03600
C42         C  0.84925593  0.40944720  0.50617648    -0.10500
H43         H  0.81095788  0.47715583  0.49631698     0.09200
H44         H  0.87634008  0.47701670  0.53727278     0.06700
H45         H  0.85194247  0.38274271  0.50135951     0.06600
C46         C  0.94025613  0.41591136  0.55056306     0.03600
C47         C  0.93118375  0.37323747  0.54792926    -0.12600
C48         C  0.90110112  0.34743068  0.53667480     0.01100
C49         C  0.87961333  0.36449180  0.52806912    -0.11100
C50         C  0.88895045  0.40794795  0.53027159     0.03600
C51         C  0.91990418  0.43339232  0.54162233    -0.10500
H52         H  0.94772506  0.36012389  0.55465312     0.09200
H53         H  0.85538465  0.34326171  0.51983744     0.06700
H54         H  0.92936641  0.46720710  0.54351143     0.06600
C55         C  0.45224022  0.43621652  0.99941818     0.03600
C56         C  0.48205675  0.48081759  0.00120219    -0.12600
C57         C  0.47625713  0.50481913  0.01273250     0.01100
C58         C  0.43913708  0.48498739  0.02203878    -0.11100
C59         C  0.40832422  0.44012737  0.02045805     0.03600
C60         C  0.41602709  0.41600055  0.00919140    -0.10500
H61         H  0.51039816  0.49684329  0.99380900     0.09200
H62         H  0.43499275  0.50507592  0.03043507     0.06700
H63         H  0.39474596  0.38109272  0.00807446     0.06600
C64         C  0.33094117  0.41421676  0.05459831     0.03600
C65         C  0.36774905  0.43573930  0.04510016    -0.12600
C66         C  0.36903319  0.41811726  0.03065911     0.01100
C67         C  0.33207899  0.37871891  0.02599743    -0.11100
C68         C  0.29637697  0.35605859  0.03575711     0.03600
C69         C  0.29586813  0.37408533  0.04997150    -0.10500
H70         H  0.39512400  0.46579510  0.04926084     0.09200
H71         H  0.33003969  0.36558233  0.01464354     0.06700
H72         H  0.26744426  0.35733542  0.05729777     0.06600
C73         C  0.99378380  0.76497958  0.38249749     0.03600
C74         C  0.03207493  0.77903239  0.37394986    -0.12600
C75         C  0.03251313  0.75595949  0.36073022     0.01100
C76         C  0.99343441  0.71749016  0.35673268    -0.11100
C77         C  0.95563069  0.70217339  0.36566999     0.03600
C78         C  0.95599354  0.72638381  0.37840433    -0.10500
H79         H  0.06121957  0.80772076  0.37794796     0.09200
H80         H  0.99139465  0.69908398  0.34658417     0.06700
H81         H  0.92717512  0.71437861  0.38553107     0.06600
C82         C  0.11564697  0.75961124  0.33156727     0.03600
C83         C  0.14941941  0.80288809  0.33322748    -0.12600
C84         C  0.14552490  0.83085833  0.34356057     0.01100
C85         C  0.10731721  0.81586201  0.35215081    -0.11100
C86         C  0.07316176  0.77195556  0.35117676     0.03600
C87         C  0.07824478  0.74400051  0.34077775    -0.10500
H88         H  0.17842650  0.81526203  0.32617464     0.09200
H89         H  0.10489126  0.83922892  0.35943480     0.06700
H90         H  0.05372798  0.70991720  0.33968865     0.06600
C91         C  0.14762919  0.09180473  0.16751025     0.03600
C92         C  0.14709307  0.12880458  0.17299569    -0.12600
C93         C  0.16643235  0.14749747  0.18706749     0.01100
C94         C  0.18470521  0.12793589  0.19604497    -0.11100
C95         C  0.18616354  0.09095602  0.19079543     0.03600
C96         C  0.16753076  0.07340202  0.17632622    -0.10500
H97         H  0.13275284  0.14385832  0.16610275     0.09200
H98         H  0.19802124  0.14239617  0.20707784     0.06700
H99         H  0.16933506  0.04617040  0.17152295     0.06600
C100        C  0.26045853  0.07885377  0.21999047     0.03600
C101        C  0.24973671  0.03553017  0.21728884    -0.12600
C102        C  0.21861173  0.00993444  0.20622186     0.01100
C103        C  0.19685645  0.02763352  0.19813150    -0.11100
C104        C  0.20810848  0.07170941  0.20012076     0.03600
C105        C  0.24056144  0.09709389  0.21109370    -0.10500
H106        H  0.26608652  0.02178457  0.22377669     0.09200
H107        H  0.17093299  0.00646915  0.19039365     0.06700
H108        H  0.25045375  0.13099517  0.21299245     0.06600
C109        C  0.05675636  0.69818735  0.83243904     0.03600
C110        C  0.01835643  0.66115142  0.83707310    -0.12600
C111        C  0.99494818  0.66283188  0.84967418     0.01100
C112        C  0.01127084  0.70167039  0.85816622    -0.11100
C113        C  0.04972961  0.74009867  0.85363118     0.03600
C114        C  0.07175048  0.73772124  0.84038346    -0.10500
H115        H  0.00601519  0.63109802  0.83055991     0.09200
H116        H  0.99367728  0.70097838  0.86836070     0.06700
H117        H  0.10017550  0.76623744  0.83589686     0.06600
C118        C  0.05681021  0.82748427  0.88181013     0.03600
C119        C  0.10017000  0.86052757  0.87972550    -0.12600
C120        C  0.12697897  0.85466386  0.86942065     0.01100
C121        C  0.11075788  0.81553125  0.86124273    -0.11100
C122        C  0.06680400  0.78203138  0.86265186     0.03600
C123        C  0.04001939  0.78894054  0.87303414    -0.10500
H124        H  0.11347597  0.89031906  0.88643799     0.09200
H125        H  0.13333792  0.81171066  0.85400783     0.06700
H126        H  0.00605750  0.76471542  0.87457885     0.06600
C127        C  0.69802464  0.61948409  0.65963762     0.03600
C128        C  0.71840262  0.60333416  0.66933197    -0.12600
C129        C  0.69475155  0.57267866  0.68098018     0.01100
C130        C  0.65030217  0.55981758  0.68298730    -0.11100
C131        C  0.63021169  0.57719268  0.67380376     0.03600
C132        C  0.65402265  0.60638364  0.66203190    -0.10500
H133        H  0.75296014  0.61568082  0.66789130     0.09200
H134        H  0.63064836  0.53609416  0.69160325     0.06700
H135        H  0.63846336  0.61976860  0.65491799     0.06600
C136        C  0.71845535  0.51919538  0.71495981     0.03600
C137        C  0.70012517  0.53863973  0.70589271    -0.12600
C138        C  0.71624090  0.55439340  0.69102441     0.01100
C139        C  0.75263842  0.55177056  0.68578706    -0.11100
C140        C  0.77242255  0.53430176  0.69512876     0.03600
C141        C  0.75473796  0.51747007  0.70952154    -0.10500
H142        H  0.67279984  0.54053482  0.71047547     0.09200
H143        H  0.76588487  0.56297473  0.67444977     0.06700
H144        H  0.76975327  0.50354798  0.71665570     0.06600
C145        C  0.37834907  0.35724276  0.49810566     0.03600
C146        C  0.34031521  0.32011397  0.50312835    -0.12600
C147        C  0.32209241  0.31995976  0.51738451     0.01100
C148        C  0.34325548  0.35671833  0.52695576    -0.11100
C149        C  0.38043642  0.39535061  0.52191491     0.03600
C150        C  0.39729425  0.39505371  0.50723439    -0.10500
H151        H  0.32459103  0.29143383  0.49583677     0.09200
H152        H  0.32994725  0.35472214  0.53826684     0.06700
H153        H  0.42482462  0.42409002  0.50256844     0.06600
C154        C  0.39721064  0.47998623  0.55281631     0.03600
C155        C  0.37736799  0.44233473  0.54354045    -0.12600
C156        C  0.40112397  0.43570363  0.53179268     0.01100
C157        C  0.44501149  0.46847028  0.52947392    -0.11100
C158        C  0.46413126  0.50680603  0.53822485     0.03600
C159        C  0.44029519  0.51226464  0.54986638    -0.10500
H160        H  0.34326432  0.41904831  0.54545460     0.09200
H161        H  0.46513028  0.46464636  0.52102164     0.06700
H162        H  0.45549323  0.54190283  0.55669513     0.06600
C163        C  0.39107659  0.99473622  0.00198696     0.03600
C164        C  0.34848151  0.98594539  0.00463350    -0.12600
C165        C  0.32205186  0.95549334  0.01570004     0.01100
C166        C  0.33813893  0.93245666  0.02396150    -0.11100
C167        C  0.38142398  0.94127279  0.02183640     0.03600
C168        C  0.40787752  0.97378907  0.01103512    -0.10500
H169        H  0.33545707  0.00245444  0.99784547     0.09200
H170        H  0.31611194  0.90705439  0.03168430     0.06700
H171        H  0.44178980  0.98346391  0.00951029     0.06600
C172        C  0.39689203  0.87263856  0.05272931     0.03600
C173        C  0.37996434  0.89514247  0.04457456    -0.12600
C174        C  0.39889661  0.91657098  0.03058966     0.01100
C175        C  0.43531035  0.91454201  0.02506834    -0.11100
C176        C  0.45399711  0.89452877  0.03358570     0.03600
C177        C  0.43408417  0.87278160  0.04720267    -0.10500
H178        H  0.35252697  0.89624509  0.04946462     0.09200
H179        H  0.44985365  0.92848321  0.01411880     0.06700
H180        H  0.44776905  0.85617020  0.05357059     0.06600
C181        C  0.05829239  0.20079449  0.38544337     0.03600
C182        C  0.09640598  0.20188214  0.38045491    -0.12600
C183        C  0.11663288  0.22281248  0.36676274     0.01100
C184        C  0.09850953  0.24270091  0.35791073    -0.11100
C185        C  0.06115108  0.24382643  0.36282084     0.03600
C186        C  0.04135475  0.22264130  0.37679497    -0.10500
H187        H  0.11032594  0.18620138  0.38723254     0.09200
H188        H  0.11389719  0.25681670  0.34707229     0.06700
H189        H  0.01311146  0.22324850  0.38116149     0.06600
C190        C  0.05427539  0.32110045  0.33355984     0.03600
C191        C  0.01093865  0.31091022  0.33541467    -0.12600
C192        C  0.98302637  0.27850884  0.34581821     0.01100
C193        C  0.99915939  0.25555795  0.35420978    -0.11100
C194        C  0.04349462  0.26712447  0.35333740     0.03600
C195        C  0.07079624  0.30074811  0.34303176    -0.10500
H196        H  0.99884177  0.32810399  0.32855137     0.09200
H197        H  0.97677071  0.22826000  0.36122079     0.06700
H198        H  0.10516892  0.31160444  0.34216490     0.06600
C199        C  0.73036645  0.15167010  0.21927793     0.03600
C200        C  0.77468883  0.18222311  0.21781638    -0.12600
C201        C  0.79967974  0.17782941  0.20635227     0.01100
C202        C  0.78043754  0.14174394  0.19644138    -0.11100
C203        C  0.73559468  0.11028303  0.19752227     0.03600
C204        C  0.71066689  0.11641310  0.20895762    -0.10500
H205        H  0.78955579  0.21029763  0.22541352     0.09200
H206        H  0.80115841  0.13851292  0.18808926     0.06700
H207        H  0.67598802  0.09416994  0.21002005     0.06600
C208        C  0.71612681  0.03440241  0.16309853     0.03600
C209        C  0.67722832  0.99734253  0.16755107    -0.12600
C210        C  0.65726832  0.99627538  0.18147504     0.01100
C211        C  0.67664130  0.03268858  0.19122608    -0.11100
C212        C  0.71530956  0.07120577  0.18697369     0.03600
C213        C  0.73442657  0.07157419  0.17263393    -0.10500
H214        H  0.66223049  0.96897845  0.16009697     0.09200
H215        H  0.66138428  0.03008666  0.20219801     0.06700
H216        H  0.76301133  0.10071666  0.16856078     0.06600
C217        C  0.50056178  0.70228794  0.33046406     0.03600
C218        C  0.51881550  0.73919679  0.34011378    -0.12600
C219        C  0.55069839  0.74555238  0.35122287     0.01100
C220        C  0.56314176  0.71351423  0.35238695    -0.11100
C221        C  0.54311577  0.67567644  0.34344083     0.03600
C222        C  0.51227878  0.67031808  0.33244464    -0.10500
H223        H  0.50728553  0.76212321  0.33895014     0.09200
H224        H  0.58839285  0.71718234  0.36020818     0.06700
H225        H  0.49745045  0.64113359  0.32537724     0.06600
C226        C  0.60892859  0.82003609  0.38553914     0.03600
C227        C  0.58983942  0.78358480  0.37581920    -0.12600
C228        C  0.57020654  0.78445619  0.36178796     0.01100
C229        C  0.56940311  0.82287880  0.35805998    -0.11100
C230        C  0.58513312  0.85815751  0.36836196     0.03600
C231        C  0.60537748  0.85663719  0.38197171    -0.10500
H232        H  0.59046317  0.75478844  0.37952729     0.09200
H233        H  0.55694739  0.82604550  0.34712271     0.06700
H234        H  0.61879996  0.88420806  0.38978573     0.06600
C235        C  0.28727190  0.15670030  0.71651183     0.03600
C236        C  0.28628320  0.19351656  0.71110633    -0.12600
C237        C  0.26501122  0.19154929  0.69733058     0.01100
C238        C  0.24543199  0.15285505  0.68878523    -0.11100
C239        C  0.24389510  0.11455654  0.69420283     0.03600
C240        C  0.26531128  0.11722126  0.70824842    -0.10500
H241        H  0.30142902  0.22347046  0.71775680     0.09200
H242        H  0.23126667  0.15343230  0.67789335     0.06700
H243        H  0.26438392  0.08877814  0.71318633     0.06600
C244        C  0.16567070  0.02760155  0.66554713     0.03600
C245        C  0.17431869  0.99377668  0.66843509    -0.12600
C246        C  0.20467771  0.99828263  0.67961975     0.01100
C247        C  0.22746962  0.03756036  0.68782398    -0.11100
C248        C  0.21941299  0.07235181  0.68532070     0.03600
C249        C  0.18759449  0.06628265  0.67416996    -0.10500
H250        H  0.15727854  0.96365499  0.66193074     0.09200
H251        H  0.25200045  0.04061187  0.69587840     0.06700
H252        H  0.17857304  0.09082677  0.67218274     0.06600
C253        C  0.44845598  0.97916163  0.49622460     0.03600
C254        C  0.48428790  0.97488547  0.50033973    -0.12600
C255        C  0.48407826  0.95365577  0.51388377     0.01100
C256        C  0.44745798  0.93650027  0.52355143    -0.11100
C257        C  0.41000411  0.93919048  0.51971724     0.03600
C258        C  0.41125328  0.96054926  0.50572379    -0.10500
H259        H  0.51266643  0.98822584  0.49293464     0.09200
H260        H  0.44935966  0.92181309  0.53413726     0.06700
H261        H  0.38337824  0.96230279  0.50173476     0.06600
C262        C  0.32735965  0.87253814  0.55179540     0.03600
C263        C  0.36455964  0.89046258  0.54228459    -0.12600
C264        C  0.37014998  0.91978265  0.53013294     0.01100
C265        C  0.33680166  0.93030137  0.52805465    -0.11100
C266        C  0.29920200  0.91154267  0.53722643     0.03600
C267        C  0.29467429  0.88265473  0.54895250    -0.10500
H268        H  0.38814181  0.88034184  0.54444443     0.09200
H269        H  0.33946080  0.95356415  0.51952041     0.06700
H270        H  0.26555517  0.86814452  0.55600871     0.06600
C271        C  0.67224794  0.55618549  0.22066424     0.03600
C272        C  0.70947435  0.57651544  0.21130662    -0.12600
C273        C  0.70814790  0.59300394  0.19667246     0.01100
C274        C  0.66909241  0.59139678  0.19213183    -0.11100
C275        C  0.63259209  0.57394789  0.20185883     0.03600
C276        C  0.63414710  0.55561741  0.21591482    -0.10500
H277        H  0.73933437  0.57918451  0.21559755     0.09200
H278        H  0.66623112  0.60282436  0.18093708     0.06700
H279        H  0.60544388  0.54069908  0.22316714     0.06600
C280        C  0.78945414  0.65696541  0.16453971     0.03600
C281        C  0.82008708  0.64349082  0.16654206    -0.12600
C282        C  0.81492714  0.61419773  0.17820955     0.01100
C283        C  0.77784538  0.59675869  0.18756093    -0.11100
C284        C  0.74693510  0.61069849  0.18613524     0.03600
C285        C  0.75362615  0.64149393  0.17454501    -0.10500
H286        H  0.84851136  0.65648263  0.15916526     0.09200
H287        H  0.77397333  0.57282286  0.19605447     0.06700
H288        H  0.73128683  0.65366023  0.17313384     0.06600
C289        C  0.83903996  0.36961995  0.99751246     0.03600
C290        C  0.85615013  0.40619263  0.00721659    -0.12600
C291        C  0.88713126  0.41279130  0.01871965     0.01100
C292        C  0.89910988  0.38043358  0.02046148    -0.11100
C293        C  0.88031255  0.34274244  0.01133651     0.03600
C294        C  0.85062142  0.33769299  0.99985340    -0.10500
H295        H  0.84417893  0.42861630  0.00572248     0.09200
H296        H  0.92344598  0.38399128  0.02868371     0.06700
H297        H  0.83643520  0.30870204  0.99269364     0.06600
C298        C  0.94694274  0.49227929  0.05185789     0.03600
C299        C  0.94261778  0.52801569  0.04769439    -0.12600
C300        C  0.92088141  0.52683154  0.03422163     0.01100
C301        C  0.90412559  0.49019178  0.02464135    -0.11100
C302        C  0.90667305  0.45288813  0.02877922     0.03600
C303        C  0.92804988  0.45454976  0.04270223    -0.10500
H304        H  0.95613744  0.55679063  0.05495631     0.09200
H305        H  0.88939282  0.49172968  0.01400555     0.06700
H306        H  0.92996173  0.42679132  0.04681579     0.06600
C307        C  0.10922907  0.30834001  0.82896974     0.03600
C308        C  0.07319973  0.29022860  0.83879198    -0.12600
C309        C  0.07510139  0.27304445  0.85314461     0.01100
C310        C  0.11425895  0.27423986  0.85731439    -0.11100
C311        C  0.14992172  0.29095981  0.84725511     0.03600
C312        C  0.14715358  0.30799633  0.83311517    -0.10500
H313        H  0.04371877  0.28928042  0.83495469     0.09200
H314        H  0.11777974  0.26281432  0.86842425     0.06700
H315        H  0.17477972  0.32146857  0.82536197     0.06600
C316        C  0.99404011  0.20176330  0.88381719     0.03600
C317        C  0.96197935  0.21363300  0.88250641    -0.12600
C318        C  0.96661251  0.24550023  0.87194624     0.01100
C319        C  0.00406842  0.26569929  0.86269149    -0.11100
C320        C  0.03623119  0.25328261  0.86352140     0.03600
C321        C  0.03043189  0.22092736  0.87417936    -0.10500
H322        H  0.93329764  0.19791911  0.88974051     0.09200
H323        H  0.00785268  0.29133172  0.85499711     0.06700
H324        H  0.05352952  0.20951469  0.87493863     0.06600
O325        O  0.55719798  0.19036442  0.81890620    -0.79700
O326        O  0.67103160  0.39090197  0.87093658    -0.81200
O327        O  0.63301156  0.34302095  0.82015022    -0.78200
O328        O  0.68476121  0.27956508  0.85015908    -0.76600
O329        O  0.66108284  0.23895149  0.87200823    -0.78400
O330        O  0.57007756  0.34598296  0.81960460    -0.79300
O331        O  0.69000362  0.36501874  0.85014357    -0.80700
O332        O  0.62436527  0.25221247  0.81903161    -0.81000
Eu333      Eu  0.62798879  0.29585113  0.84164983     2.39200
O334        O  0.62662331  0.29685006  0.86850171    -0.88500
O335        O  0.55608722  0.26307191  0.83243737    -0.92100
C336        C  0.59520087  0.21572829  0.81298548     1.02600
C337        C  0.69884651  0.39348430  0.86083492     1.02400
C338        C  0.60807923  0.35616489  0.81433086     1.02400
C339        C  0.69005561  0.25940011  0.86158924     1.00200
H340        H  0.61222602  0.36625393  0.84653783     0.30000
O341        O  0.59577611  0.33652804  0.85021436    -1.00900
H342        H  0.60225997  0.20732835  0.84698696     0.30000
O343        O  0.58858417  0.22341694  0.85057065    -1.03400
O344        O  0.55162462  0.34204733  0.89844285    -0.80600
O345        O  0.44289316  0.13478218  0.84981135    -0.80200
O346        O  0.53856773  0.37602838  0.84832278    -0.78600
O347        O  0.63181585  0.26755710  0.89944240    -0.81900
O348        O  0.56923408  0.15017613  0.87057900    -0.79800
O349        O  0.47923220  0.25946950  0.81878997    -0.78400
O350        O  0.42659471  0.24927680  0.86984020    -0.80000
O351        O  0.48349011  0.18962900  0.90026509    -0.81900
O352        O  0.45192529  0.29163868  0.84836980    -0.78600
O353        O  0.54496714  0.18423681  0.89981673    -0.81300
O354        O  0.58224836  0.39738748  0.86957399    -0.77000
O355        O  0.47188165  0.19142278  0.81989307    -0.77100
O356        O  0.52736419  0.13075569  0.84891453    -0.76700
O357        O  0.63550839  0.33400485  0.89967500    -0.80200
O358        O  0.48539306  0.27890500  0.89861489    -0.79600
O359        O  0.42295245  0.15826586  0.87111969    -0.78000
Eu360      Eu  0.59477377  0.33732510  0.87722610     2.39800
Eu361      Eu  0.51611441  0.19120040  0.84160738     2.39600
Eu362      Eu  0.52343066  0.30264581  0.84102810     2.38400
Eu363      Eu  0.58752592  0.22492810  0.87756842     2.39900
Eu364      Eu  0.48303941  0.23160733  0.87751241     2.39800
O365        O  0.51534922  0.19159777  0.86861574    -0.92400
O366        O  0.52283208  0.30341276  0.86798181    -0.91300
C367        C  0.51316222  0.31694289  0.90400625     1.02800
C368        C  0.41591383  0.12963215  0.86065540     1.01500
C369        C  0.56037015  0.40373205  0.85902731     1.00900
C370        C  0.64452654  0.30561724  0.90527911     1.02900
C371        C  0.54731035  0.12298148  0.85976331     1.01800
C372        C  0.46414557  0.22004657  0.81373677     1.00700
C373        C  0.42276779  0.27146228  0.85877709     1.00700
C374        C  0.50888444  0.17671509  0.90599133     1.03400
H375        H  0.45364741  0.21695820  0.84669413     0.30700
O376        O  0.48329751  0.23070570  0.85043100    -1.04500
H377        H  0.55524633  0.26564872  0.89751170     0.32800
O378        O  0.55524917  0.26510238  0.88644489    -1.07100
O379        O  0.80880524  0.85289587  0.98366503    -0.79700
O380        O  0.90836188  0.05921672  0.03246107    -0.81200
O381        O  0.77618952  0.94412975  0.01116245    -0.78200
O382        O  0.89505977  0.00531257  0.98286290    -0.76600
O383        O  0.96096206  0.00823944  0.98342941    -0.78400
O384        O  0.75547156  0.90078246  0.03244047    -0.79300
O385        O  0.86387810  0.03520100  0.01135984    -0.80700
O386        O  0.80640726  0.91623785  0.98325420    -0.81000
Eu387      Eu  0.85084470  0.96206601  0.00474978     2.39200
O388        O  0.92273999  0.00050928  0.01418780    -0.88500
O389        O  0.81689008  0.89013332  0.01404121    -0.92100
C390        C  0.79585527  0.87814141  0.97789511     1.02600
C391        C  0.88632657  0.06410920  0.02165437     1.02400
C392        C  0.74812568  0.92099566  0.02155324     1.02400
C393        C  0.93349880  0.01787728  0.97747059     1.00200
H394        H  0.83381967  0.97711531  0.03507953     0.30000
O395        O  0.84971337  0.96298480  0.03172926    -1.00900
H396        H  0.88950250  0.92755439  0.98506243     0.30000
O397        O  0.88920861  0.92785423  0.99614987    -1.03400
O398        O  0.96244356  0.00201589  0.06407569    -0.80600
O399        O  0.87004067  0.79810465  0.01321974    -0.80200
O400        O  0.81184495  0.93464376  0.06201784    -0.78600
O401        O  0.01780254  0.03938886  0.01319670    -0.81900
O402        O  0.96480368  0.92423012  0.98401163    -0.79800
O403        O  0.75948828  0.81702274  0.03380965    -0.78400
O404        O  0.88340428  0.85342763  0.06424587    -0.80000
O405        O  0.99887571  0.90854361  0.03469281    -0.81900
O406        O  0.81747072  0.85045717  0.06383860    -0.78600
O407        O  0.01916624  0.95122813  0.01319150    -0.81300
O408        O  0.87442937  0.00132741  0.06201105    -0.77000
O409        O  0.78217545  0.79651477  0.01243936    -0.77100
O410        O  0.90119218  0.85853400  0.98365232    -0.76700
O411        O  0.99505242  0.06008658  0.03449812    -0.80200
O412        O  0.96712852  0.93982751  0.06405693    -0.79600
O413        O  0.91044131  0.82054295  0.03528648    -0.78000
Eu414      Eu  0.92158155  0.00103923  0.04118040     2.39800
Eu415      Eu  0.85497784  0.85583147  0.00534378     2.39600
Eu416      Eu  0.81592777  0.89084188  0.04098348     2.38400
Eu417      Eu  0.96090897  0.96588122  0.00576462     2.39900
Eu418      Eu  0.92582462  0.89462731  0.04184929     2.39800
O419        O  0.92674810  0.89372069  0.01485603    -0.92400
O420        O  0.88756100  0.92901986  0.05036907    -0.91300
C421        C  0.97500712  0.97665218  0.06994943     1.02800
C422        C  0.88996518  0.79229117  0.02457058     1.01500
C423        C  0.83635833  0.97357072  0.06735838     1.00900
C424        C  0.02311268  0.06684655  0.02387336     1.02900
C425        C  0.93921382  0.88618772  0.97821586     1.01800
C426        C  0.75420891  0.78966322  0.02309632     1.00700
C427        C  0.84548531  0.84172859  0.06993329     1.00700
C428        C  0.02592858  0.92983622  0.02378558     1.03400
H429        H  0.83950819  0.82668366  0.03629139     0.30700
O430        O  0.85395110  0.85627964  0.03241491    -1.04500
H431        H  0.99000487  0.98243491  0.03663113     0.32800
O432        O  0.96046405  0.96690967  0.03276017    -1.07100
O433        O  0.62921465  0.33416976  0.39729203    -0.79700
O434        O  0.53876729  0.13395079  0.34489974    -0.81200
O435        O  0.55001318  0.18189663  0.39579759    -0.78200
O436        O  0.66558788  0.24413727  0.36645776    -0.76600
O437        O  0.68695808  0.29003676  0.34578033    -0.78400
O438        O  0.48339613  0.17717101  0.39561872    -0.79300
O439        O  0.58008763  0.15679185  0.36668060    -0.80700
O440        O  0.63461469  0.27245095  0.39655302    -0.81000
Eu441      Eu  0.59257823  0.22888201  0.37429310     2.39200
O442        O  0.59454325  0.23101247  0.34733290    -0.88500
O443        O  0.55252354  0.26064296  0.38362109    -0.92100
C444        C  0.64280802  0.30907537  0.40267474     1.02600
C445        C  0.55992476  0.12855991  0.35594977     1.02400
C446        C  0.51128003  0.16749076  0.40126236     1.02400
C447        C  0.69303685  0.26670798  0.35581381     1.00200
H448        H  0.50654068  0.15938638  0.36819543     0.30000
O449        O  0.52058881  0.18939989  0.36485498    -1.00900
H450        H  0.65579074  0.31805002  0.36998076     0.30000
O451        O  0.62633464  0.30218464  0.36610781    -1.03400
O452        O  0.47805825  0.18990430  0.31604218    -0.80600
O453        O  0.57217816  0.39252760  0.36723378    -0.80200
O454        O  0.42293584  0.14985030  0.36451309    -0.78600
O455        O  0.63072736  0.26490135  0.31632497    -0.81900
O456        O  0.68256970  0.37851286  0.34705005    -0.79800
O457        O  0.47596787  0.26316358  0.39590877    -0.78400
O458        O  0.43971871  0.27683239  0.34566643    -0.80000
O459        O  0.55991698  0.34542289  0.31787086    -0.81900
O460        O  0.42022583  0.23262522  0.36677421    -0.78600
O461        O  0.62686373  0.35073972  0.31828765    -0.81300
O462        O  0.44840297  0.13300510  0.34311183    -0.77000
O463        O  0.53801399  0.33008775  0.39644708    -0.77100
O464        O  0.65704511  0.39573644  0.36842087    -0.76700
O465        O  0.56864818  0.19798691  0.31584790    -0.80200
O466        O  0.47254509  0.25148192  0.31626565    -0.79600
O467        O  0.52799723  0.36920566  0.34602908    -0.78000
Eu468      Eu  0.52279963  0.19214178  0.33786513     2.39800
Eu469      Eu  0.58550862  0.33353475  0.37520532     2.39600
Eu470      Eu  0.48080240  0.22152358  0.37408798     2.38400
Eu471      Eu  0.62743460  0.30412470  0.33909755     2.39900
Eu472      Eu  0.51476921  0.29636392  0.33859804     2.39800
O473        O  0.58631086  0.33463156  0.34830403    -0.92400
O474        O  0.48289932  0.22388113  0.34715488    -0.91300
C475        C  0.46412750  0.21437659  0.31041016     1.02800
C476        C  0.55040674  0.39785165  0.35641614     1.01500
C477        C  0.41823656  0.12471220  0.35301455     1.00900
C478        C  0.60565030  0.22712825  0.31019950     1.02900
C479        C  0.68611506  0.40479348  0.35797054     1.01800
C480        C  0.50003585  0.30174657  0.40166164     1.00700
C481        C  0.41247459  0.25356170  0.35628987     1.00700
C482        C  0.59906630  0.36053920  0.31272017     1.03400
H483        H  0.49744751  0.30808473  0.36930853     0.30700
O484        O  0.51364130  0.29468234  0.36564036    -1.04500
H485        H  0.55606212  0.26620947  0.31840685     0.32800
O486        O  0.55555849  0.26515626  0.32945050    -1.07100
O487        O  0.34403145  0.69945424  0.68119511    -0.79700
O488        O  0.13756415  0.58498306  0.72997678    -0.81200
O489        O  0.22881412  0.71152053  0.70188793    -0.78200
O490        O  0.29240897  0.65847494  0.73046873    -0.76600
O491        O  0.29790933  0.59685716  0.73020736    -0.78400
O492        O  0.18701237  0.68965292  0.68017034    -0.79300
O493        O  0.20106318  0.65055898  0.73079557    -0.80700
O494        O  0.31732074  0.71748951  0.70201571    -0.81000
Eu495      Eu  0.24637695  0.65504855  0.70878679     2.39200
O496        O  0.21327493  0.58261402  0.71737637    -0.88500
O497        O  0.24845630  0.65704182  0.68184378    -0.92100
C498        C  0.34706725  0.72611704  0.69190716     1.02600
C499        C  0.16320265  0.62256867  0.73618158     1.02400
C500        C  0.20698821  0.71708899  0.69117049     1.02400
C501        C  0.30709349  0.63431189  0.73586700     1.00200
H502        H  0.15765511  0.62984869  0.70286040     0.30000
O503        O  0.17435626  0.61689311  0.69922428    -1.00900
H504        H  0.31705541  0.63964595  0.70385031     0.30000
O505        O  0.28748362  0.62362765  0.70004275    -1.03400
O506        O  0.08599210  0.47042775  0.69965603    -0.80600
O507        O  0.29200221  0.58386369  0.65105900    -0.80200
O508        O  0.09929983  0.59377090  0.67723026    -0.78600
O509        O  0.21007554  0.50744415  0.73065350    -0.81900
O510        O  0.32538450  0.56281402  0.70039287    -0.79800
O511        O  0.22144561  0.66409878  0.65063626    -0.78400
O512        O  0.13760803  0.50956893  0.65049173    -0.80000
O513        O  0.20259619  0.45695839  0.67927292    -0.81900
O514        O  0.13588310  0.57342809  0.65003389    -0.78600
O515        O  0.24315699  0.47915628  0.70117244    -0.81300
O516        O  0.07950166  0.55000354  0.69840321    -0.77000
O517        O  0.28814522  0.66882330  0.65112798    -0.77100
O518        O  0.34734544  0.60895195  0.67973987    -0.76700
O519        O  0.14259090  0.50124342  0.72954180    -0.80200
O520        O  0.11078812  0.45258036  0.67825529    -0.79600
O521        O  0.22988965  0.51694089  0.65040318    -0.78000
Eu522      Eu  0.14177652  0.54407327  0.70770097     2.39800
Eu523      Eu  0.28889636  0.62512868  0.67307656     2.39600
Eu524      Eu  0.17684482  0.61818290  0.67217667     2.38400
Eu525      Eu  0.25365781  0.55072423  0.70862429     2.39900
Eu526      Eu  0.18379778  0.51293858  0.67211617     2.39800
O527        O  0.25518117  0.55248202  0.68171357    -0.92400
O528        O  0.14455427  0.54579838  0.68087438    -0.91300
C529        C  0.08165348  0.44430808  0.68858682     1.02800
C530        C  0.26744906  0.54580580  0.64506644     1.01500
C531        C  0.07091833  0.56850270  0.68724093     1.00900
C532        C  0.17111839  0.49367158  0.73577882     1.02900
C533        C  0.35281598  0.58493448  0.68967531     1.01800
C534        C  0.26019211  0.67793424  0.64521545     1.00700
C535        C  0.12543887  0.53534249  0.64470163     1.00700
C536        C  0.22431679  0.45165734  0.69014479     1.03400
H537        H  0.21760953  0.58618639  0.65241924     0.30700
O538        O  0.21705010  0.58582025  0.66348770    -1.04500
H539        H  0.16780374  0.48120325  0.70265545     0.32800
O540        O  0.18164957  0.51110036  0.69912646    -1.07100
O541        O  0.22603121  0.51653843  0.15247050    -0.79700
O542        O  0.33450929  0.72146998  0.20234068    -0.81200
O543        O  0.29291821  0.66739947  0.15126303    -0.78200
O544        O  0.35090707  0.60860473  0.18114531    -0.76600
O545        O  0.32680578  0.56547631  0.20241405    -0.78400
O546        O  0.23052602  0.67150811  0.15148205    -0.79300
O547        O  0.35346776  0.69806496  0.18071821    -0.80700
O548        O  0.29261522  0.57944450  0.15227481    -0.81000
Eu549      Eu  0.29353666  0.62523373  0.17370496     2.39200
O550        O  0.29343360  0.62630266  0.20069125    -0.88500
O551        O  0.22113352  0.59045320  0.16483067    -0.92100
C552        C  0.26433919  0.54165777  0.14684979     1.02600
C553        C  0.36123019  0.72636317  0.19138994     1.02400
C554        C  0.26741772  0.68008278  0.14556427     1.02400
C555        C  0.35547117  0.58605425  0.19190613     1.00200
H556        H  0.27494375  0.69379708  0.17865156     0.30000
O557        O  0.25963223  0.66416482  0.18246195    -1.00900
H558        H  0.26923531  0.53683561  0.17938822     0.30000
O559        O  0.25542879  0.55283985  0.18289531    -1.03400
O560        O  0.21459183  0.66543973  0.23116024    -0.80600
O561        O  0.11118485  0.45959568  0.18223731    -0.80200
O562        O  0.19947608  0.70067638  0.18156324    -0.78600
O563        O  0.29939537  0.59752800  0.23150171    -0.81900
O564        O  0.23508323  0.47807673  0.20389583    -0.79800
O565        O  0.14425955  0.58531295  0.15166622    -0.78400
O566        O  0.09010793  0.57078618  0.20195956    -0.80000
O567        O  0.14951593  0.51498200  0.23247822    -0.81900
O568        O  0.11287208  0.61237051  0.18020717    -0.78600
O569        O  0.21307668  0.51335055  0.23233811    -0.81300
O570        O  0.24360267  0.72318761  0.20269810    -0.77000
O571        O  0.13885620  0.51809396  0.15219154    -0.77100
O572        O  0.19381360  0.45793584  0.18204954    -0.76700
O573        O  0.30035477  0.66272787  0.23184700    -0.80200
O574        O  0.14927853  0.60115553  0.23149063    -0.79600
O575        O  0.09091355  0.48353086  0.20340738    -0.78000
Eu576      Eu  0.25933715  0.66486940  0.20948814     2.39800
Eu577      Eu  0.18297621  0.51833414  0.17408266     2.39600
Eu578      Eu  0.18701468  0.62863906  0.17366014     2.38400
Eu579      Eu  0.25514065  0.55394311  0.20981119     2.39900
Eu580      Eu  0.14901750  0.55716110  0.20986668     2.39800
O581        O  0.18285139  0.51880456  0.20102472    -0.92400
O582        O  0.18686262  0.62943200  0.20059250    -0.91300
C583        C  0.17654493  0.63919803  0.23690364     1.02800
C584        C  0.08465212  0.45470334  0.19316820     1.01500
C585        C  0.22023437  0.72824036  0.19241102     1.00900
C586        C  0.31045531  0.63513923  0.23740166     1.02900
C587        C  0.21302542  0.45040502  0.19321491     1.01800
C588        C  0.13040300  0.54654712  0.14630600     1.00700
C589        C  0.08417152  0.59080615  0.19064279     1.00700
C590        C  0.17618869  0.50399091  0.23836820     1.03400
H591        H  0.11898721  0.54155906  0.17914063     0.30700
O592        O  0.14866123  0.55630461  0.18286128    -1.04500
H593        H  0.22146266  0.59288818  0.22965900     0.32800
O594        O  0.22142353  0.59254028  0.21859836    -1.07100
O595        O  0.87564269  0.99133732  0.56568611    -0.79700
O596        O  0.77511850  0.79132775  0.51414287    -0.81200
O597        O  0.75548747  0.90248531  0.53491476    -0.78200
O598        O  0.80910470  0.83889942  0.56436471    -0.76600
O599        O  0.87308777  0.83787525  0.56540866    -0.78400
O600        O  0.77848918  0.94472255  0.51324555    -0.79300
O601        O  0.75369434  0.81314882  0.53550800    -0.80700
O602        O  0.81015787  0.92789227  0.56502560    -0.81000
Eu603      Eu  0.81215971  0.88586249  0.54298447     2.39200
O604        O  0.84705537  0.84868533  0.53402974    -0.88500
O605        O  0.85042829  0.95869183  0.53438926    -0.92100
C606        C  0.83689285  0.96534976  0.57099074     1.02600
C607        C  0.74749108  0.78540088  0.52482566     1.02400
C608        C  0.75016896  0.92349254  0.52380272     1.02400
C609        C  0.83453224  0.82662712  0.57040257     1.00200
H610        H  0.78405828  0.87252035  0.51203712     0.30000
O611        O  0.81350205  0.88680368  0.51598685    -1.00900
H612        H  0.88287240  0.91883508  0.56396782     0.30000
O613        O  0.88355622  0.91942024  0.55289821    -1.03400
O614        O  0.89280136  0.84902190  0.48551449    -0.80600
O615        O  0.99649835  0.04945588  0.53780392    -0.80200
O616        O  0.80977260  0.91775777  0.48479972    -0.78600
O617        O  0.89932807  0.80747190  0.53649229    -0.81900
O618        O  0.96342600  0.92469784  0.56560285    -0.79800
O619        O  0.86937591  0.03333278  0.51492338    -0.78400
O620        O  0.96066059  0.00067432  0.48594187    -0.80000
O621        O  0.01562707  0.94041037  0.51611497    -0.81900
O622        O  0.89760829  0.00356605  0.48571190    -0.78600
O623        O  0.99160378  0.89587954  0.53713485    -0.81300
O624        O  0.80654367  0.85158470  0.48498462    -0.77000
O625        O  0.91075662  0.05263358  0.53674177    -0.77100
O626        O  0.96570671  0.99034945  0.56609831    -0.76700
O627        O  0.85749871  0.78815459  0.51482601    -0.80200
O628        O  0.95847662  0.91237842  0.48600006    -0.79600
O629        O  0.01735608  0.02841940  0.51607799    -0.78000
Eu630      Eu  0.84860037  0.84968202  0.50710018     2.39800
Eu631      Eu  0.92190788  0.99208675  0.54427375     2.39600
Eu632      Eu  0.85230099  0.95954313  0.50731941     2.38400
Eu633      Eu  0.91840506  0.88209274  0.54374002     2.39900
Eu634      Eu  0.95843218  0.95602581  0.50804440     2.39800
O635        O  0.95644138  0.95466414  0.53503691    -0.92400
O636        O  0.88703234  0.92217657  0.49831265    -0.91300
C637        C  0.93124742  0.87484273  0.48009163     1.02800
C638        C  0.02420818  0.05543617  0.52713741     1.01500
C639        C  0.79699617  0.87934611  0.47920781     1.00900
C640        C  0.87663566  0.78001376  0.52585721     1.02900
C641        C  0.97632627  0.96280984  0.57143791     1.01800
C642        C  0.89124374  0.06049745  0.52575860     1.00700
C643        C  0.93528107  0.01346404  0.48020872     1.00700
C644        C  0.02049862  0.91803525  0.52683380     1.03400
H645        H  0.93962602  0.02327513  0.51364596     0.30700
O646        O  0.92371918  0.99338694  0.51718294    -1.04500
H647        H  0.93455669  0.86752117  0.51307666     0.32800
O648        O  0.92036321  0.88307904  0.51669107    -1.07100
C649        C  0.98706156  0.06476790  0.93909356    -0.01500
C650        C  0.97100623  0.09301376  0.93574083     0.07100
C651        C  0.94372291  0.09759535  0.94623077    -0.07500
C652        C  0.93161128  0.07402830  0.95993193     0.04500
C653        C  0.94682758  0.04482209  0.96331745    -0.14700
C654        C  0.97496326  0.04094430  0.95283017    -0.08100
C655        C  0.98094833  0.11772195  0.92124146     0.05400
C656        C  0.94853634  0.10283429  0.90991565    -0.09200
C657        C  0.95310061  0.12881229  0.89719477     0.00400
C658        C  0.99045672  0.17064671  0.89582445     0.00300
C659        C  0.02405905  0.18438787  0.90671387    -0.12700
C660        C  0.01956404  0.15823750  0.91939344     0.00700
C661        C  0.91899285  0.11207499  0.88576790     0.40100
C662        C  0.05400834  0.17435701  0.93068281     0.36700
C663        C  0.01533484  0.05940623  0.92850063     0.36400
C664        C  0.90452433  0.08158173  0.97041110     0.37200
N665        N  0.89174313  0.09882544  0.87657984    -0.43600
N666        N  0.08171651  0.18722656  0.93969247    -0.44100
N667        N  0.88280673  0.08778043  0.97875020    -0.41400
N668        N  0.03804905  0.05533359  0.91996782    -0.42900
H669        H  0.98689472  0.01869138  0.95522298     0.13300
H670        H  0.93180794  0.11979076  0.94365996     0.09800
H671        H  0.91898487  0.07144223  0.91129879     0.10900
H672        H  0.05301481  0.21639889  0.90565375     0.16700
C673        C  0.87656346  0.25696685  0.85310424    -0.01500
C674        C  0.85724546  0.26578569  0.86575381     0.07100
C675        C  0.87600131  0.27076027  0.88033694    -0.07500
C676        C  0.91239023  0.26578681  0.88256628     0.04500
C677        C  0.93098967  0.25575698  0.86999753    -0.14700
C678        C  0.91330324  0.25246851  0.85530773    -0.08100
C679        C  0.81509556  0.26539838  0.86452327     0.05400
C680        C  0.77991131  0.23510345  0.87343041    -0.09200
C681        C  0.73916354  0.23238666  0.87279503     0.00400
C682        C  0.73269699  0.26057277  0.86291790     0.00300
C683        C  0.76843444  0.29152054  0.85422036    -0.12700
C684        C  0.80927651  0.29431335  0.85500160     0.00700
C685        C  0.70490199  0.19957027  0.88225521     0.40100
C686        C  0.84473802  0.32773994  0.84614166     0.36700
C687        C  0.85806188  0.24991502  0.83790623     0.36400
C688        C  0.92988621  0.27115077  0.89787843     0.37200
N689        N  0.67784539  0.17316069  0.88991483    -0.43600
N690        N  0.87286458  0.35434718  0.83888251    -0.44100
N691        N  0.94364614  0.27524188  0.91018245    -0.41400
N692        N  0.84358921  0.24459682  0.82567456    -0.42900
H693        H  0.92706811  0.24438294  0.84560163     0.13300
H694        H  0.86146132  0.27762747  0.89011005     0.09800
H695        H  0.78422470  0.21292652  0.88084602     0.10900
H696        H  0.76476517  0.31415747  0.84685375     0.16700
C697        C  0.10332409  0.40078670  0.76279974    -0.01500
C698        C  0.13094505  0.41192920  0.77564028     0.07100
C699        C  0.17140355  0.45075300  0.77558719    -0.07500
C700        C  0.18514165  0.47804986  0.76274101     0.04500
C701        C  0.15774700  0.46666842  0.74975470    -0.14700
C702        C  0.11662033  0.42846253  0.75005089    -0.08100
C703        C  0.11955986  0.38252525  0.78896443     0.05400
C704        C  0.12275346  0.34474034  0.78756399    -0.09200
C705        C  0.11703848  0.31856597  0.80034202     0.00400
C706        C  0.10864524  0.33067265  0.81478526     0.00300
C707        C  0.10301879  0.36709924  0.81598584    -0.12700
C708        C  0.10830291  0.39301441  0.80317971     0.00700
C709        C  0.11935098  0.27923900  0.79838952     0.40100
C710        C  0.10226710  0.43024223  0.80488110     0.36700
C711        C  0.06157985  0.36090141  0.76241974     0.36400
C712        C  0.22695842  0.51788056  0.76332227     0.37200
N713        N  0.12079858  0.24748535  0.79687493    -0.43600
N714        N  0.09710549  0.45987665  0.80627050    -0.44100
N715        N  0.26047511  0.54975687  0.76384799    -0.41400
N716        N  0.02823516  0.32879419  0.76211660    -0.42900
H717        H  0.09536496  0.41959953  0.74012907     0.13300
H718        H  0.19258845  0.45928355  0.78551996     0.09800
H719        H  0.13066224  0.33628738  0.77654071     0.10900
H720        H  0.09600068  0.37615640  0.82705633     0.16700
C721        C  0.31918288  0.27070267  0.87076973    -0.01500
C722        C  0.30518792  0.27964445  0.85683017     0.07100
C723        C  0.32986823  0.28630454  0.84356165    -0.07500
C724        C  0.36798310  0.28378038  0.84389294     0.04500
C725        C  0.38209721  0.27405734  0.85783496    -0.14700
C726        C  0.35704548  0.26744878  0.87116062    -0.08100
C727        C  0.26494207  0.28246382  0.85570836     0.05400
C728        C  0.26874312  0.32332963  0.85306852    -0.09200
C729        C  0.23161152  0.32706004  0.85088628     0.00400
C730        C  0.18976327  0.28928411  0.85118421     0.00300
C731        C  0.18598127  0.24853428  0.85422783    -0.12700
C732        C  0.22316183  0.24483979  0.85640543     0.00700
C733        C  0.23719381  0.36999371  0.84854988     0.40100
C734        C  0.21783425  0.20197629  0.85863975     0.36700
C735        C  0.29601758  0.26655828  0.88485150     0.36400
C736        C  0.39124107  0.29077703  0.82960997     0.37200
N737        N  0.24150877  0.40433945  0.84668581    -0.43600
N738        N  0.21365630  0.16765199  0.86040648    -0.44100
N739        N  0.41004507  0.29670036  0.81819607    -0.41400
N740        N  0.27733481  0.26371568  0.89606587    -0.42900
H741        H  0.36752469  0.26072188  0.88199024     0.13300
H742        H  0.31910121  0.29336077  0.83284337     0.09800
H743        H  0.30086657  0.35231312  0.85259304     0.10900
H744        H  0.15397652  0.21934089  0.85434558     0.16700
C745        C  0.98125496  0.50703339  0.09341980    -0.01500
C746        C  0.02159353  0.50826791  0.09256464     0.07100
C747        C  0.03635783  0.50219701  0.07836825    -0.07500
C748        C  0.01177478  0.49550714  0.06503665     0.04500
C749        C  0.97173629  0.49495498  0.06584420    -0.14700
C750        C  0.95672083  0.50046494  0.08008287    -0.08100
C751        C  0.04989040  0.51780687  0.10619729     0.05400
C752        C  0.03893139  0.48532181  0.11732754    -0.09200
C753        C  0.06506513  0.49343241  0.13037645     0.00400
C754        C  0.10303065  0.53473223  0.13233675     0.00300
C755        C  0.11389089  0.56702726  0.12109074    -0.12700
C756        C  0.08765985  0.55897918  0.10814934     0.00700
C757        C  0.05081712  0.45978007  0.14192697     0.40100
C758        C  0.09923355  0.59399110  0.09731679     0.36700
C759        C  0.96529906  0.51428523  0.10770356     0.36400
C760        C  0.02922344  0.49137897  0.05057910     0.37200
N761        N  0.03916285  0.43282032  0.15119860    -0.43600
N762        N  0.10843006  0.62220456  0.08871609    -0.44100
N763        N  0.04320032  0.48811915  0.03898445    -0.41400
N764        N  0.95234531  0.52023376  0.11909300    -0.42900
H765        H  0.92613567  0.50043720  0.08070911     0.13300
H766        H  0.06755157  0.50349580  0.07768782     0.09800
H767        H  0.00961964  0.45375927  0.11588071     0.10900
H768        H  0.14277474  0.59895068  0.12251564     0.16700
C769        C  0.86606538  0.59425988  0.03300441    -0.01500
C770        C  0.89894848  0.63374267  0.02660136     0.07100
C771        C  0.93830721  0.63705078  0.02180511    -0.07500
C772        C  0.94569956  0.60202191  0.02377799     0.04500
C773        C  0.91336575  0.56318237  0.03067190    -0.14700
C774        C  0.87353133  0.55935392  0.03501105    -0.08100
C775        C  0.89409751  0.67287171  0.02578003     0.05400
C776        C  0.89194328  0.69230362  0.03949376    -0.09200
C777        C  0.88876198  0.73010844  0.03936976     0.00400
C778        C  0.88961162  0.75026312  0.02526553     0.00300
C779        C  0.89025149  0.72978705  0.01151033    -0.12700
C780        C  0.89202210  0.69111045  0.01168631     0.00700
C781        C  0.88178049  0.74558303  0.05382541     0.40100
C782        C  0.89017988  0.66981212  0.99735393     0.36700
C783        C  0.82445927  0.58888371  0.03752568     0.36400
C784        C  0.98657518  0.60659263  0.01873109     0.37200
N785        N  0.87542350  0.75706445  0.06547106    -0.43600
N786        N  0.88818374  0.65228165  0.98592189    -0.44100
N787        N  0.01926749  0.61022986  0.01460238    -0.41400
N788        N  0.79109979  0.58462999  0.04109871    -0.42900
H789        H  0.84855587  0.52927301  0.04021964     0.13300
H790        H  0.96360369  0.66737973  0.01684702     0.09800
H791        H  0.89233638  0.67754982  0.05035122     0.10900
H792        H  0.88969427  0.74415740  0.00059368     0.16700
C793        C  0.93184074  0.18605499  0.02200720    -0.01500
C794        C  0.89419385  0.18904639  0.01953554     0.07100
C795        C  0.85360237  0.15078828  0.01788881    -0.07500
C796        C  0.85012508  0.10962626  0.01853422     0.04500
C797        C  0.88790095  0.10653464  0.02091846    -0.14700
C798        C  0.92842716  0.14494750  0.02275563    -0.08100
C799        C  0.89617778  0.23168910  0.01839012     0.05400
C800        C  0.91011673  0.25502686  0.00460928    -0.09200
C801        C  0.90716262  0.29260896  0.00235517     0.00400
C802        C  0.89020857  0.30734018  0.01407228     0.00300
C803        C  0.87868940  0.28536413  0.02820297    -0.12700
C804        C  0.88133500  0.24754055  0.03039757     0.00700
C805        C  0.92106489  0.31521766  0.98787079     0.40100
C806        C  0.86769172  0.22474301  0.04486177     0.36700
C807        C  0.97406375  0.22466690  0.02401993     0.36400
C808        C  0.80731354  0.07125454  0.01733123     0.37200
N809        N  0.93203728  0.33344851  0.97627708    -0.43600
N810        N  0.85684211  0.20618944  0.05640149    -0.44100
N811        N  0.77289221  0.04065801  0.01642168    -0.41400
N812        N  0.00788513  0.25563811  0.02567697    -0.42900
H813        H  0.95758487  0.14283010  0.02461295     0.13300
H814        H  0.82458439  0.15319186  0.01609076     0.09800
H815        H  0.92190648  0.24297907  0.99542607     0.10900
H816        H  0.86579134  0.29664204  0.03726882     0.16700
C817        C  0.73977639  0.31685274  0.97176172    -0.01500
C818        C  0.75261183  0.34680547  0.95954039     0.07100
C819        C  0.79268861  0.38601536  0.96032830    -0.07500
C820        C  0.82064887  0.39497124  0.97289994     0.04500
C821        C  0.80863901  0.36402338  0.98484851    -0.14700
C822        C  0.76789889  0.32542086  0.98420234    -0.08100
C823        C  0.72540804  0.33675319  0.94556143     0.05400
C824        C  0.69714771  0.35346802  0.94406129    -0.09200
C825        C  0.67025584  0.34372834  0.93112321     0.00400
C826        C  0.67194959  0.31718356  0.91929653     0.00300
C827        C  0.70016569  0.30027769  0.92097023    -0.12700
C828        C  0.72666254  0.30975296  0.93393479     0.00700
C829        C  0.63981777  0.35956671  0.93070706     0.40100
C830        C  0.75487395  0.29135548  0.93505890     0.36700
C831        C  0.69784597  0.27717910  0.97175231     0.36400
C832        C  0.86216077  0.43518712  0.97296665     0.37200
N833        N  0.61532448  0.37214632  0.93048569    -0.43600
N834        N  0.77733540  0.27643639  0.93590336    -0.44100
N835        N  0.89535806  0.46748534  0.97310790    -0.41400
N836        N  0.66408076  0.24555345  0.97178771    -0.42900
H837        H  0.75820851  0.30174560  0.99341063     0.13300
H838        H  0.80249877  0.40918086  0.95094937     0.09800
H839        H  0.69561615  0.37358552  0.95315243     0.10900
H840        H  0.70179996  0.27974987  0.91205320     0.16700
C841        C  0.88171153  0.55764128  0.18004710    -0.01500
C842        C  0.92108648  0.59086850  0.18645962     0.07100
C843        C  0.92451834  0.63069275  0.19068855    -0.07500
C844        C  0.88989956  0.63826907  0.18825650     0.04500
C845        C  0.85079755  0.60551400  0.18157694    -0.14700
C846        C  0.84668981  0.56503587  0.17776081    -0.08100
C847        C  0.96046673  0.58652424  0.18779531     0.05400
C848        C  0.98257114  0.58747681  0.17438461    -0.09200
C849        C  0.02250214  0.58847881  0.17502729     0.00400
C850        C  0.04116665  0.58845183  0.18940660     0.00300
C851        C  0.01803421  0.58593576  0.20284488    -0.12700
C852        C  0.97817104  0.58531819  0.20213050     0.00700
C853        C  0.04299992  0.58896844  0.16066957     0.40100
C854        C  0.95592190  0.58359002  0.21620086     0.36700
C855        C  0.87684385  0.51600842  0.17571834     0.36400
C856        C  0.89528018  0.68011915  0.19257676     0.37200
N857        N  0.05912934  0.58954452  0.14907726    -0.43600
N858        N  0.93784010  0.58220188  0.22741694    -0.44100
N859        N  0.89941324  0.71361936  0.19598007    -0.41400
N860        N  0.87325274  0.48274490  0.17228084    -0.42900
H861        H  0.81658047  0.53970100  0.17269384     0.13300
H862        H  0.95481857  0.65636438  0.19554164     0.09800
H863        H  0.96896987  0.58845647  0.16334463     0.10900
H864        H  0.03157143  0.58548901  0.21394925     0.16700
C865        C  0.86021792  0.80284953  0.10875628    -0.01500
C866        C  0.81760139  0.76921682  0.11227402     0.07100
C867        C  0.78342643  0.76080460  0.10215307    -0.07500
C868        C  0.79130810  0.78432844  0.08843763     0.04500
C869        C  0.83428263  0.81721044  0.08465656    -0.14700
C870        C  0.86818726  0.82631685  0.09506457    -0.08100
C871        C  0.80866025  0.74010651  0.12575071     0.05400
C872        C  0.81322583  0.75685349  0.14067875    -0.09200
C873        C  0.80627503  0.73018096  0.15352869     0.00400
C874        C  0.79462233  0.68603697  0.15148933     0.00300
C875        C  0.79005711  0.66941568  0.13657865    -0.12700
C876        C  0.79675922  0.69588527  0.12377428     0.00700
C877        C  0.81298404  0.74917009  0.16863667     0.40100
C878        C  0.79241901  0.67728154  0.10868878     0.36700
C879        C  0.89661532  0.81283104  0.11872034     0.36400
C880        C  0.75510425  0.77214203  0.07812032     0.37200
N881        N  0.81854618  0.76451066  0.18073692    -0.43600
N882        N  0.78886186  0.66247567  0.09657869    -0.44100
N883        N  0.72601666  0.76217426  0.06986516    -0.41400
N884        N  0.92587884  0.82101361  0.12668087    -0.42900
H885        H  0.90127771  0.85170614  0.09243868     0.13300
H886        H  0.75061927  0.73482915  0.10479385     0.09800
H887        H  0.82264212  0.79088753  0.14226997     0.10900
H888        H  0.78154422  0.63562994  0.13495186     0.16700
C889        C  0.67390711  0.45165903  0.28555657    -0.01500
C890        C  0.64415684  0.45282093  0.27514622     0.07100
C891        C  0.59941377  0.42368688  0.27706187    -0.07500
C892        C  0.58384174  0.39358053  0.28914204     0.04500
C893        C  0.61358087  0.39178555  0.29959312    -0.14700
C894        C  0.65857356  0.42112387  0.29755044    -0.08100
C895        C  0.65831300  0.48422695  0.26217772     0.05400
C896        C  0.67717387  0.47695836  0.24920194    -0.09200
C897        C  0.68417642  0.50153456  0.23578786     0.00400
C898        C  0.67208568  0.53410031  0.23525230     0.00300
C899        C  0.65564588  0.54292179  0.24860815    -0.12700
C900        C  0.64879307  0.51839768  0.26198099     0.00700
C901        C  0.70102248  0.49060136  0.22247521     0.40100
C902        C  0.63112872  0.52816223  0.27533090     0.36700
C903        C  0.72002798  0.48271475  0.28455471     0.36400
C904        C  0.53721760  0.36477700  0.29026512     0.37200
N905        N  0.71470125  0.48205301  0.21180699    -0.43600
N906        N  0.61707975  0.53583531  0.28609549    -0.44100
N907        N  0.49982238  0.34195616  0.29116494    -0.41400
N908        N  0.75696583  0.50786735  0.28387286    -0.42900
H909        H  0.68192929  0.42095420  0.30554664     0.13300
H910        H  0.57647298  0.42461756  0.26904545     0.09800
H911        H  0.68451287  0.45064930  0.24932509     0.10900
H912        H  0.64699725  0.56830094  0.24845555     0.16700
C913        C  0.46163857  0.59389753  0.17865915    -0.01500
C914        C  0.47245786  0.57589139  0.19116514     0.07100
C915        C  0.44520786  0.56185717  0.20403319    -0.07500
C916        C  0.40757540  0.56523401  0.20468286     0.04500
C917        C  0.39603204  0.58286981  0.19207266    -0.14700
C918        C  0.42373767  0.59708014  0.17916877    -0.08100
C919        C  0.51352525  0.57413420  0.19176488     0.05400
C920        C  0.55353723  0.61350265  0.19181673    -0.09200
C921        C  0.59273695  0.61401336  0.19457319     0.00400
C922        C  0.59234101  0.57448693  0.19742222     0.00300
C923        C  0.55239074  0.53492933  0.19691758    -0.12700
C924        C  0.51321520  0.53443517  0.19402458     0.00700
C925        C  0.63249497  0.65580513  0.19533962     0.40100
C926        C  0.47310614  0.49286211  0.19340541     0.36700
C927        C  0.48855427  0.60875021  0.16509514     0.36400
C928        C  0.38255466  0.55114747  0.21870241     0.37200
N929        N  0.66418481  0.68947569  0.19592927    -0.43600
N930        N  0.44099147  0.45954000  0.19284930    -0.44100
N931        N  0.36275045  0.53970186  0.22997882    -0.41400
N932        N  0.51008716  0.62076794  0.15421363    -0.42900
H933        H  0.41576270  0.61051904  0.16934358     0.13300
H934        H  0.45398212  0.54894368  0.21382585     0.09800
H935        H  0.55395013  0.64415360  0.19032473     0.10900
H936        H  0.55179582  0.50438127  0.19894850     0.16700
C937        C  0.26120507  0.75701949  0.61547272    -0.01500
C938        C  0.29415737  0.76199858  0.60524003     0.07100
C939        C  0.31669735  0.73959430  0.60821067    -0.07500
C940        C  0.30652499  0.71207715  0.62105703     0.04500
C941        C  0.27311914  0.70674904  0.63134002    -0.14700
C942        C  0.25093208  0.72962943  0.62826783    -0.08100
C943        C  0.30426213  0.78917582  0.59110761     0.05400
C944        C  0.33997274  0.83201252  0.59099733    -0.09200
C945        C  0.34879508  0.85917355  0.57813406     0.00400
C946        C  0.32194451  0.84338431  0.56499180     0.00300
C947        C  0.28646179  0.80032099  0.56509133    -0.12700
C948        C  0.27758395  0.77326777  0.57795940     0.00700
C949        C  0.38390021  0.90395014  0.57900766     0.40100
C950        C  0.24068844  0.72933719  0.57753951     0.36700
C951        C  0.23773175  0.78014082  0.61320419     0.36400
C952        C  0.32984589  0.68862766  0.62296197     0.37200
N953        N  0.41182195  0.93996027  0.57968536    -0.43600
N954        N  0.21121379  0.69406380  0.57731082    -0.44100
N955        N  0.34855860  0.66984271  0.62442974    -0.41400
N956        N  0.21884769  0.79866810  0.61153368    -0.42900
H957        H  0.22555526  0.72653549  0.63598865     0.13300
H958        H  0.34185389  0.74306144  0.60030298     0.09800
H959        H  0.36027624  0.84461794  0.60113770     0.10900
H960        H  0.26525556  0.78804269  0.55515390     0.16700
C961        C  0.20324774  0.91030748  0.51780976    -0.01500
C962        C  0.18729397  0.92567157  0.52962282     0.07100
C963        C  0.21032547  0.94002263  0.54343419    -0.07500
C964        C  0.24803268  0.93757845  0.54587997     0.04500
C965        C  0.26328672  0.92062428  0.53431044    -0.14700
C966        C  0.24129722  0.90823934  0.52017957    -0.08100
C967        C  0.14482073  0.92380505  0.52836407     0.05400
C968        C  0.10759790  0.88665797  0.53387459    -0.09200
C969        C  0.06678302  0.88382504  0.53356429     0.00400
C970        C  0.06274780  0.91873322  0.52741727     0.00300
C971        C  0.10041554  0.95592591  0.52185568    -0.12700
C972        C  0.14128223  0.95886745  0.52246491     0.00700
C973        C  0.02993850  0.84443104  0.53948117     0.40100
C974        C  0.17936217  0.99858487  0.51745045     0.36700
C975        C  0.17995891  0.89464080  0.50350169     0.36400
C976        C  0.27020549  0.95227114  0.56041259     0.37200
N977        N  0.00080494  0.81281032  0.54436770    -0.43600
N978        N  0.21003995  0.03048961  0.51356596    -0.44100
N979        N  0.28777671  0.96405642  0.57209711    -0.41400
N980        N  0.16115570  0.88189784  0.49206756    -0.42900
H981        H  0.25269853  0.89500263  0.51126905     0.13300
H982        H  0.19805034  0.95200370  0.55248380     0.09800
H983        H  0.11060921  0.85988743  0.53856871     0.10900
H984        H  0.09819601  0.98333402  0.51736414     0.16700
C985        C  0.52118798  0.10727353  0.43592526    -0.01500
C986        C  0.47762759  0.08195811  0.44092712     0.07100
C987        C  0.44483228  0.08485824  0.43294775    -0.07500
C988        C  0.45461490  0.11196348  0.42002922     0.04500
C989        C  0.49846312  0.13781216  0.41496156    -0.14700
C990        C  0.53122071  0.13479368  0.42315135    -0.08100
C991        C  0.46592388  0.05279003  0.45459553     0.05400
C992        C  0.45236557  0.06411163  0.46809623    -0.09200
C993        C  0.44493675  0.03978788  0.48162997     0.00400
C994        C  0.45065275  0.00296219  0.48177431     0.00300
C995        C  0.46254963  0.99075949  0.46804661    -0.12700
C996        C  0.47005984  0.01513409  0.45455942     0.00700
C997        C  0.43418121  0.05498786  0.49540120     0.40100
C998        C  0.48239506  0.00114983  0.44083672     0.36700
C999        C  0.55622307  0.10585431  0.44387996     0.36400
C1000       C  0.41857113  0.11124413  0.41203840     0.37200
N1001       N  0.42561580  0.06732233  0.50642040    -0.43600
N1002       N  0.49239476  0.99006005  0.42983835    -0.44100
N1003       N  0.38965690  0.11054658  0.40560499    -0.41400
N1004       N  0.58400183  0.10426458  0.45028324    -0.42900
H1005       H  0.56504791  0.15413644  0.41964618     0.13300
H1006       H  0.41125509  0.06529429  0.43671718     0.09800
H1007       H  0.44913717  0.09302535  0.46820238     0.10900
H1008       H  0.46674133  0.96242077  0.46793854     0.16700
C1009       C  0.65681701  0.93805500  0.53676253    -0.01500
C1010       C  0.63297310  0.93086454  0.52308415     0.07100
C1011       C  0.64654663  0.91898780  0.50974230    -0.07500
C1012       C  0.68403861  0.91525421  0.50976811     0.04500
C1013       C  0.70887082  0.92406395  0.52334025    -0.14700
C1014       C  0.69443750  0.93456178  0.53679410    -0.08100
C1015       C  0.59414979  0.93618280  0.52224715     0.05400
C1016       C  0.60024998  0.97843100  0.52131233    -0.09200
C1017       C  0.56475130  0.98484836  0.51900022     0.00400
C1018       C  0.52213909  0.94845132  0.51765059     0.00300
C1019       C  0.51600054  0.90613319  0.51909588    -0.12700
C1020       C  0.55164931  0.89981000  0.52132527     0.00700
C1021       C  0.57292968  0.02909606  0.51811442     0.40100
C1022       C  0.54419500  0.85587293  0.52260514     0.36700
C1023       C  0.64308571  0.94843977  0.55093687     0.36400
C1024       C  0.69486278  0.90023229  0.49595464     0.37200
N1025       N  0.57968235  0.06463218  0.51739188    -0.43600
N1026       N  0.53868800  0.82084840  0.52370875    -0.44100
N1027       N  0.70257593  0.88758468  0.48483082    -0.41400
N1028       N  0.63234019  0.95651868  0.56241622    -0.42900
H1029       H  0.71306129  0.94081695  0.54730144     0.13300
H1030       H  0.62772312  0.91263432  0.49928029     0.09800
H1031       H  0.63298255  0.00643325  0.52205492     0.10900
H1032       H  0.48344917  0.87799367  0.51807136     0.16700
C1033       C  0.20404648  0.90463074  0.70083959    -0.01500
C1034       C  0.21215823  0.88297973  0.68882723     0.07100
C1035       C  0.22195841  0.90161549  0.67417132    -0.07500
C1036       C  0.22220679  0.94054587  0.67117931     0.04500
C1037       C  0.21143513  0.96096060  0.68291772    -0.14700
C1038       C  0.20364208  0.94337596  0.69780193    -0.08100
C1039       C  0.20934380  0.84012005  0.69095618     0.05400
C1040       C  0.17302391  0.80269425  0.68502396    -0.09200
C1041       C  0.17079114  0.76202780  0.68532647     0.00400
C1042       C  0.20591772  0.75856045  0.69146308     0.00300
C1043       C  0.24162357  0.79605705  0.69787042    -0.12700
C1044       C  0.24355751  0.83657600  0.69764516     0.00700
C1045       C  0.13158383  0.72444514  0.67964994     0.40100
C1046       C  0.28160451  0.87438134  0.70382389     0.36700
C1047       C  0.19461971  0.88689692  0.71617100     0.36400
C1048       C  0.23455750  0.95943174  0.65606578     0.37200
N1049       N  0.10001628  0.69437753  0.67516922    -0.43600
N1050       N  0.31204861  0.90472819  0.70877890    -0.44100
N1051       N  0.24479593  0.97472705  0.64398407    -0.41400
N1052       N  0.18716036  0.87274660  0.72847059    -0.42900
H1053       H  0.19566940  0.95904746  0.70691782     0.13300
H1054       H  0.22919579  0.88546503  0.66501403     0.09800
H1055       H  0.14648928  0.80543255  0.67999740     0.10900
H1056       H  0.26879899  0.79407743  0.70268850     0.16700
C1057       C  0.03120093  0.01970090  0.60881641    -0.01500
C1058       C  0.05440454  0.99847493  0.61290598     0.07100
C1059       C  0.05351499  0.96681980  0.60302533    -0.07500
C1060       C  0.02983374  0.95583430  0.58927284     0.04500
C1061       C  0.00460979  0.97546173  0.58542272    -0.14700
C1062       C  0.00616540  0.00770860  0.59532549    -0.08100
C1063       C  0.08105522  0.00931920  0.62715350     0.05400
C1064       C  0.06572499  0.97969462  0.63942160    -0.09200
C1065       C  0.09190034  0.98624047  0.65235309     0.00400
C1066       C  0.13466731  0.02268034  0.65306534     0.00300
C1067       C  0.14925952  0.05326669  0.64103048    -0.12700
C1068       C  0.12288788  0.04678910  0.62813661     0.00700
C1069       C  0.07402834  0.95537631  0.66483118     0.40100
C1070       C  0.13999381  0.07781039  0.61568987     0.36700
C1071       C  0.03286403  0.05411986  0.61819373     0.36400
C1072       C  0.03426380  0.92614033  0.57906371     0.37200
N1073       N  0.05983413  0.93080970  0.67488407    -0.43600
N1074       N  0.15328065  0.10240494  0.60562434    -0.44100
N1075       N  0.03847211  0.90270024  0.57091107    -0.41400
N1076       N  0.03441854  0.08209062  0.62555745    -0.42900
H1077       H  0.98768585  0.02365569  0.59257047     0.13300
H1078       H  0.07237853  0.95134898  0.60592093     0.09800
H1079       H  0.03343448  0.95099784  0.63877178     0.10900
H1080       H  0.18199096  0.08134598  0.64141690     0.16700
C1081       C  0.20845100  0.25515808  0.68817529    -0.01500
C1082       C  0.24395854  0.29815518  0.68676020     0.07100
C1083       C  0.28667354  0.30525190  0.68718020    -0.07500
C1084       C  0.29439955  0.27069368  0.68988953     0.04500
C1085       C  0.25896649  0.22834881  0.69254290    -0.14700
C1086       C  0.21623019  0.22078467  0.69113092    -0.08100
C1087       C  0.23787007  0.33669865  0.68722078     0.05400
C1088       C  0.25265325  0.36333993  0.70025549    -0.09200
C1089       C  0.24812047  0.40022263  0.70167966     0.00400
C1090       C  0.22846880  0.41157417  0.68968712     0.00300
C1091       C  0.21345795  0.38434876  0.67661361    -0.12700
C1092       C  0.21803938  0.34732286  0.67529667     0.00700
C1093       C  0.26374713  0.42491357  0.71574201     0.40100
C1094       C  0.20316620  0.32148255  0.66146268     0.36700
C1095       C  0.16382144  0.24559557  0.68729450     0.36400
C1096       C  0.33874645  0.27929775  0.68965914     0.37200
N1097       N  0.27640594  0.44424544  0.72709055    -0.43600
N1098       N  0.19106721  0.30080742  0.65036832    -0.44100
N1099       N  0.37431572  0.28625139  0.68929275    -0.41400
N1100       N  0.12793051  0.23747800  0.68640499    -0.42900
H1101       H  0.18879913  0.18808960  0.69288767     0.13300
H1102       H  0.31406831  0.33816476  0.68583146     0.09800
H1103       H  0.26767383  0.35496415  0.70949152     0.10900
H1104       H  0.19858583  0.39220452  0.66720941     0.16700
C1105       C  0.31859812  0.17483214  0.75861593    -0.01500
C1106       C  0.35665198  0.17156304  0.75885984     0.07100
C1107       C  0.37040605  0.16081803  0.74527803    -0.07500
C1108       C  0.34754647  0.15459429  0.73148363     0.04500
C1109       C  0.31035121  0.15947242  0.73110953    -0.14700
C1110       C  0.29607827  0.16922997  0.74479135    -0.08100
C1111       C  0.38470072  0.18339930  0.77279500     0.05400
C1112       C  0.37143471  0.15488691  0.78538337    -0.09200
C1113       C  0.39668447  0.16620672  0.79883047     0.00400
C1114       C  0.43612717  0.20676971  0.79980919     0.00300
C1115       C  0.44902554  0.23537557  0.78722560    -0.12700
C1116       C  0.42376071  0.22398986  0.77381515     0.00700
C1117       C  0.38014646  0.13674783  0.81174587     0.40100
C1118       C  0.43765403  0.25495219  0.76134603     0.36700
C1119       C  0.30289962  0.18519478  0.77234891     0.36400
C1120       C  0.36424400  0.14561334  0.71770814     0.37200
N1121       N  0.36664201  0.11325811  0.82211741    -0.43600
N1122       N  0.44820429  0.27946630  0.75127376    -0.44100
N1123       N  0.37769438  0.13851757  0.70666011    -0.41400
N1124       N  0.29036047  0.19328416  0.78341654    -0.42900
H1125       H  0.26748479  0.17290600  0.74462649     0.13300
H1126       H  0.39978686  0.15850541  0.74538497     0.09800
H1127       H  0.34099515  0.12400605  0.78476369     0.10900
H1128       H  0.47903290  0.26666704  0.78784781     0.16700
C1129       C  0.57107975  0.03634496  0.37314058    -0.01500
C1130       C  0.56867623  0.01156106  0.36016907     0.07100
C1131       C  0.56047768  0.02343758  0.34577407    -0.07500
C1132       C  0.55630310  0.06057247  0.34402198     0.04500
C1133       C  0.56092746  0.08699108  0.35691257    -0.14700
C1134       C  0.56754063  0.07373211  0.37142111    -0.08100
C1135       C  0.57394840  0.97270611  0.36143066     0.05400
C1136       C  0.53746538  0.93115166  0.35919955    -0.09200
C1137       C  0.54052401  0.89343788  0.36095031     0.00400
C1138       C  0.58090465  0.89710235  0.36503271     0.00300
C1139       C  0.61770142  0.93897162  0.36678898    -0.12700
C1140       C  0.61457618  0.97660264  0.36495068     0.00700
C1141       C  0.50130468  0.85157123  0.35904556     0.40100
C1142       C  0.65356420  0.01884892  0.36647907     0.36700
C1143       C  0.57599463  0.02338802  0.38837454     0.36400
C1144       C  0.54789186  0.07051778  0.32881677     0.37200
N1145       N  0.46983161  0.81812581  0.35737519    -0.43600
N1146       N  0.68488224  0.05266760  0.36763473    -0.44100
N1147       N  0.54060651  0.07731087  0.31651944    -0.41400
N1148       N  0.57963032  0.01290596  0.40059821    -0.42900
H1149       H  0.56976637  0.09253298  0.38155506     0.13300
H1150       H  0.55775644  0.00376736  0.33583369     0.09800
H1151       H  0.50627515  0.92820179  0.35638362     0.10900
H1152       H  0.64902088  0.94227506  0.36963110     0.16700
C1153       C  0.74945284  0.88792227  0.44126169    -0.01500
C1154       C  0.71625087  0.84442237  0.43865143     0.07100
C1155       C  0.70976480  0.81206957  0.44930749    -0.07500
C1156       C  0.73576740  0.82254447  0.46251913     0.04500
C1157       C  0.76925135  0.86626408  0.46519114    -0.14700
C1158       C  0.77555243  0.89850676  0.45441958    -0.08100
C1159       C  0.68613793  0.83303814  0.42539189     0.05400
C1160       C  0.69873531  0.82545553  0.41099417    -0.09200
C1161       C  0.67299634  0.81927111  0.39796367     0.00400
C1162       C  0.63405915  0.82086214  0.39927863     0.00300
C1163       C  0.62095035  0.82717639  0.41377340    -0.12700
C1164       C  0.64655811  0.83312719  0.42678035     0.00700
C1165       C  0.68839073  0.81396097  0.38323282     0.40100
C1166       C  0.63265205  0.84118678  0.44136086     0.36700
C1167       C  0.75645110  0.92237129  0.43074825     0.36400
C1168       C  0.72566901  0.78825668  0.47353044     0.37200
N1169       N  0.70043636  0.80972797  0.37137128    -0.43600
N1170       N  0.62171969  0.84778411  0.45307084    -0.44100
N1171       N  0.71762712  0.76094756  0.48241714    -0.41400
N1172       N  0.76179936  0.94984480  0.42230048    -0.42900
H1173       H  0.80088827  0.93216357  0.45629293     0.13300
H1174       H  0.68365705  0.77873531  0.44745700     0.09800
H1175       H  0.72934521  0.82571913  0.40987494     0.10900
H1176       H  0.59115733  0.82852012  0.41485264     0.16700
C1177       C  0.59596149  0.52003474  0.35414522    -0.01500
C1178       C  0.55762512  0.52254525  0.35274707     0.07100
C1179       C  0.51694435  0.48390169  0.35269095    -0.07500
C1180       C  0.51385415  0.44307562  0.35408299     0.04500
C1181       C  0.55207251  0.44039798  0.35560903    -0.14700
C1182       C  0.59288957  0.47910461  0.35574295    -0.08100
C1183       C  0.55861244  0.56482969  0.35129199     0.05400
C1184       C  0.57686941  0.59046640  0.33811044    -0.09200
C1185       C  0.57334375  0.62766703  0.33551983     0.00400
C1186       C  0.55194645  0.63985769  0.34635076     0.00300
C1187       C  0.53539057  0.61542515  0.35980019    -0.12700
C1188       C  0.53811544  0.57786384  0.36227441     0.00700
C1189       C  0.59099872  0.65247332  0.32160354     0.40100
C1190       C  0.51832590  0.55241521  0.37591419     0.36700
C1191       C  0.63858396  0.55891075  0.35402170     0.36400
C1192       C  0.47098894  0.40458705  0.35435464     0.37200
N1193       N  0.60488675  0.67261251  0.31048518    -0.43600
N1194       N  0.50202494  0.53176267  0.38675569    -0.44100
N1195       N  0.43648769  0.37394804  0.35459621    -0.41400
N1196       N  0.67268832  0.59011863  0.35382347    -0.42900
H1197       H  0.62244172  0.47727083  0.35676142     0.13300
H1198       H  0.48740729  0.48570689  0.35152421     0.09800
H1199       H  0.59234293  0.58043567  0.32957803     0.10900
H1200       H  0.51869617  0.62475906  0.36808496     0.16700
C1201       C  0.40243595  0.64784245  0.30429450    -0.01500
C1202       C  0.41480474  0.67850062  0.29233235     0.07100
C1203       C  0.45415657  0.71830615  0.29334882    -0.07500
C1204       C  0.48186957  0.72743045  0.30597487     0.04500
C1205       C  0.46973448  0.69666184  0.31797158    -0.14700
C1206       C  0.42965212  0.65727636  0.31706017    -0.08100
C1207       C  0.38863104  0.66811461  0.27815441     0.05400
C1208       C  0.35656091  0.68004740  0.27695084    -0.09200
C1209       C  0.33050366  0.66962611  0.26379317     0.00400
C1210       C  0.33693462  0.64725980  0.25153617     0.00300
C1211       C  0.36893441  0.63515681  0.25288896    -0.12700
C1212       C  0.39469151  0.64537044  0.26604733     0.00700
C1213       C  0.29611048  0.68025048  0.26353062     0.40100
C1214       C  0.42703311  0.63204066  0.26692155     0.36700
C1215       C  0.36307237  0.60569990  0.30330277     0.36400
C1216       C  0.52399627  0.76688548  0.30578453     0.37200
N1217       N  0.26846522  0.68863240  0.26340731    -0.43600
N1218       N  0.45289935  0.62128220  0.26761034    -0.44100
N1219       N  0.55792623  0.79830665  0.30565692    -0.41400
N1220       N  0.33171737  0.57182552  0.30238851    -0.42900
H1221       H  0.42037000  0.63318296  0.32610593     0.13300
H1222       H  0.46399655  0.74147248  0.28396749     0.09800
H1223       H  0.35148760  0.69691920  0.28640881     0.10900
H1224       H  0.37408792  0.61794266  0.24357434     0.16700
C1225       C  0.72635928  0.01126857  0.12133949    -0.01500
C1226       C  0.76945755  0.01926184  0.12060311     0.07100
C1227       C  0.79627702  0.03542085  0.13359459    -0.07500
C1228       C  0.78027151  0.04230251  0.14740819     0.04500
C1229       C  0.73665130  0.03327791  0.14830350    -0.14700
C1230       C  0.71043445  0.01846480  0.13506658    -0.08100
C1231       C  0.78597568  0.00756617  0.10680797     0.05400
C1232       C  0.81042306  0.03964489  0.09584475    -0.09200
C1233       C  0.82693041  0.02947116  0.08281645     0.00400
C1234       C  0.81933729  0.98648828  0.08073369     0.00300
C1235       C  0.79413080  0.95438938  0.09165485    -0.12700
C1236       C  0.77757133  0.96457073  0.10458263     0.00700
C1237       C  0.84970972  0.06317656  0.07148065     0.40100
C1238       C  0.75234576  0.93045190  0.11552599     0.36700
C1239       C  0.69754783  0.99458746  0.10826705     0.36400
C1240       C  0.80838743  0.05585204  0.16069001     0.37200
N1241       N  0.86770629  0.09018948  0.06237531    -0.43600
N1242       N  0.73212754  0.90313250  0.12430213    -0.44100
N1243       N  0.83100246  0.06670950  0.17131821    -0.41400
N1244       N  0.67433697  0.98120567  0.09781947    -0.42900
H1245       H  0.67694534  0.01145771  0.13556690     0.13300
H1246       H  0.82932000  0.04112775  0.13308446     0.09800
H1247       H  0.81631337  0.07259261  0.09742658     0.10900
H1248       H  0.78780964  0.92123964  0.09021156     0.16700
C1249       C  0.53641335  0.92558732  0.18890522    -0.01500
C1250       C  0.53108861  0.88331975  0.18899974     0.07100
C1251       C  0.56785394  0.87844916  0.18767744    -0.07500
C1252       C  0.60953131  0.91499817  0.18581311     0.04500
C1253       C  0.61481757  0.95731027  0.18537008    -0.14700
C1254       C  0.57815704  0.96220617  0.18725844    -0.08100
C1255       C  0.48726434  0.84366801  0.18995478     0.05400
C1256       C  0.46170204  0.82862942  0.17667203    -0.09200
C1257       C  0.42049940  0.79080432  0.17697094     0.00400
C1258       C  0.40398566  0.76749649  0.19083868     0.00300
C1259       C  0.42944566  0.78309351  0.20421024    -0.12700
C1260       C  0.47105482  0.82064556  0.20380376     0.00700
C1261       C  0.39535590  0.77738823  0.16296378     0.40100
C1262       C  0.49690200  0.83504902  0.21763383     0.36700
C1263       C  0.49937606  0.93199444  0.19009023     0.36400
C1264       C  0.64642681  0.90842330  0.18431597     0.37200
N1265       N  0.37533082  0.76682752  0.15171509    -0.43600
N1266       N  0.51809994  0.84693903  0.22860668    -0.44100
N1267       N  0.67620341  0.90353082  0.18303776    -0.41400
N1268       N  0.46966940  0.93712841  0.19096796    -0.42900
H1269       H  0.58194890  0.99458696  0.18681416     0.13300
H1270       H  0.56381365  0.84595446  0.18780678     0.09800
H1271       H  0.47413516  0.84644843  0.16601891     0.10900
H1272       H  0.41727453  0.76534870  0.21488475     0.16700
C1273       C  0.70048833  0.16740505  0.25935800    -0.01500
C1274       C  0.66760806  0.17787349  0.25661460     0.07100
C1275       C  0.65330633  0.17709113  0.24156005    -0.07500
C1276       C  0.67200418  0.16682762  0.22921795     0.04500
C1277       C  0.70561424  0.15725960  0.23193075    -0.14700
C1278       C  0.71923124  0.15732630  0.24705993    -0.08100
C1279       C  0.64858418  0.19037090  0.26942014     0.05400
C1280       C  0.66479675  0.23475913  0.27260418    -0.09200
C1281       C  0.65045604  0.24775170  0.28550554     0.00400
C1282       C  0.62016044  0.21579437  0.29574704     0.00300
C1283       C  0.60272987  0.17138884  0.29201683    -0.12700
C1284       C  0.61634040  0.15856436  0.27896654     0.00700
C1285       C  0.66584926  0.29380175  0.28748077     0.40100
C1286       C  0.59652469  0.11257055  0.27549439     0.36700
C1287       C  0.71629255  0.16805074  0.27467823     0.36400
C1288       C  0.65783598  0.16858120  0.21385973     0.37200
N1289       N  0.67775343  0.33063593  0.28896772    -0.43600
N1290       N  0.58032056  0.07572593  0.27262260    -0.44100
N1291       N  0.64650624  0.17010574  0.20154818    -0.41400
N1292       N  0.72888037  0.16864717  0.28697018    -0.42900
H1293       H  0.74527672  0.15034654  0.24921964     0.13300
H1294       H  0.62801986  0.18517869  0.23944906     0.09800
H1295       H  0.68890717  0.25928823  0.26502433     0.10900
H1296       H  0.57854394  0.14642501  0.29938042     0.16700
C1297       C  0.89584942  0.27441120  0.18814924    -0.01500
C1298       C  0.92691724  0.28929831  0.20008160     0.07100
C1299       C  0.91736856  0.26519247  0.21371644    -0.07500
C1300       C  0.87665814  0.22748955  0.21578451     0.04500
C1301       C  0.84510918  0.21337434  0.20399706    -0.14700
C1302       C  0.85547966  0.23649722  0.19013829    -0.08100
C1303       C  0.96814801  0.33151990  0.19878069     0.05400
C1304       C  0.96572564  0.36966138  0.19690936    -0.09200
C1305       C  0.00331986  0.40993700  0.19445899     0.00400
C1306       C  0.04427260  0.41256215  0.19436875     0.00300
C1307       C  0.04694420  0.37464176  0.19633711    -0.12700
C1308       C  0.00918806  0.33412635  0.19854983     0.00700
C1309       C  0.99890488  0.44752009  0.19108062     0.40100
C1310       C  0.01332460  0.29575734  0.20020048     0.36700
C1311       C  0.90428084  0.29841216  0.17396228     0.36400
C1312       C  0.86775594  0.20406268  0.23010422     0.37200
N1313       N  0.99522880  0.47739110  0.18810237    -0.43600
N1314       N  0.01689143  0.26514409  0.20152370    -0.44100
N1315       N  0.86049240  0.18525229  0.24157640    -0.41400
N1316       N  0.91130792  0.31826504  0.16273684    -0.42900
H1317       H  0.83120146  0.22599933  0.18110925     0.13300
H1318       H  0.94119766  0.27664045  0.22291402     0.09800
H1319       H  0.93416631  0.36767890  0.19696594     0.10900
H1320       H  0.07859708  0.37681177  0.19630588     0.16700
C1321       C  0.81244856  0.30402873  0.34905306    -0.01500
C1322       C  0.81403350  0.26564741  0.35199890     0.07100
C1323       C  0.77606884  0.22785310  0.35668637    -0.07500
C1324       C  0.73651162  0.22749790  0.35820227     0.04500
C1325       C  0.73446583  0.26569622  0.35492511    -0.14700
C1326       C  0.77284373  0.30366754  0.35036791    -0.08100
C1327       C  0.85506079  0.26436153  0.35022392     0.05400
C1328       C  0.87687832  0.26248557  0.36333953    -0.09200
C1329       C  0.91768891  0.26525665  0.36223636     0.00400
C1330       C  0.93712787  0.26925136  0.34766297     0.00300
C1331       C  0.91354463  0.26825556  0.33450258    -0.12700
C1332       C  0.87318881  0.26631032  0.33568334     0.00700
C1333       C  0.93962723  0.26650996  0.37633736     0.40100
C1334       C  0.85124423  0.26722959  0.32185117     0.36700
C1335       C  0.85131627  0.34437324  0.34500019     0.36400
C1336       C  0.69848101  0.18690421  0.36259910     0.37200
N1337       N  0.95688982  0.26721764  0.38768862    -0.43600
N1338       N  0.83356033  0.26822432  0.31083382    -0.44100
N1339       N  0.66841129  0.15410022  0.36617908    -0.41400
N1340       N  0.88257680  0.37667604  0.34181731    -0.42900
H1341       H  0.77204441  0.33336403  0.34800962     0.13300
H1342       H  0.77727554  0.19833349  0.35898158     0.09800
H1343       H  0.86272054  0.26061224  0.37453479     0.10900
H1344       H  0.92718579  0.27010872  0.32321757     0.16700
C1345       C  0.10716192  0.42125485  0.30787968    -0.01500
C1346       C  0.12260037  0.40666402  0.29565145     0.07100
C1347       C  0.11994527  0.36587064  0.29672650    -0.07500
C1348       C  0.09956660  0.33836569  0.30931283     0.04500
C1349       C  0.08144514  0.35171018  0.32114975    -0.14700
C1350       C  0.08633081  0.39365962  0.32040428    -0.08100
C1351       C  0.13656536  0.43114490  0.28093945     0.05400
C1352       C  0.18083128  0.45444663  0.27700499    -0.09200
C1353       C  0.19469789  0.47872852  0.26335643     0.00400
C1354       C  0.16360269  0.47904379  0.25310668     0.00300
C1355       C  0.11920911  0.45525392  0.25716401    -0.12700
C1356       C  0.10565799  0.43164759  0.27089787     0.00700
C1357       C  0.24114620  0.50456149  0.26068937     0.40100
C1358       C  0.05968117  0.40788532  0.27450117     0.36700
C1359       C  0.11200687  0.46429312  0.30759599     0.36400
C1360       C  0.09473564  0.29532843  0.30918372     0.37200
N1361       N  0.27840549  0.52536312  0.25868752    -0.43600
N1362       N  0.02295162  0.38885689  0.27755517    -0.44100
N1363       N  0.09082114  0.26081780  0.30903843    -0.41400
N1364       N  0.11647472  0.49901478  0.30722870    -0.42900
H1365       H  0.07312019  0.40452999  0.32948990     0.13300
H1366       H  0.13182198  0.35457819  0.28733474     0.09800
H1367       H  0.20469028  0.45444791  0.28479950     0.10900
H1368       H  0.09480148  0.45486904  0.24956282     0.16700
C1369       C  0.04210585  0.15882493  0.42636473    -0.01500
C1370       C  0.99994401  0.12177053  0.42574310     0.07100
C1371       C  0.97570118  0.11254608  0.41214609    -0.07500
C1372       C  0.99333947  0.13915326  0.39913124     0.04500
C1373       C  0.03618030  0.17550986  0.39955553    -0.14700
C1374       C  0.05998301  0.18510569  0.41332111    -0.08100
C1375       C  0.98115250  0.09222055  0.43919528     0.05400
C1376       C  0.95909220  0.10198889  0.45045323    -0.09200
C1377       C  0.94360406  0.07673853  0.46384102     0.00400
C1378       C  0.95035285  0.04094493  0.46616208     0.00300
C1379       C  0.97219837  0.03111294  0.45478595    -0.12700
C1380       C  0.98735827  0.05619291  0.44137701     0.00700
C1381       C  0.92289984  0.08968346  0.47530749     0.40100
C1382       C  0.00969502  0.04463280  0.43012031     0.36700
C1383       C  0.06768308  0.16993545  0.44025941     0.36400
C1384       C  0.96764515  0.12739983  0.38526630     0.37200
N1385       N  0.90641867  0.10022360  0.48448268    -0.43600
N1386       N  0.02752679  0.03504226  0.42117155    -0.44100
N1387       N  0.94720808  0.11830163  0.37411693    -0.41400
N1388       N  0.08778807  0.17855685  0.45147862    -0.42900
H1389       H  0.09289095  0.21287694  0.41380118     0.13300
H1390       H  0.94319264  0.08414469  0.41164378     0.09800
H1391       H  0.95472783  0.12998013  0.44889515     0.10900
H1392       H  0.97727855  0.00355460  0.45633972     0.16700
C1393       C  0.23675263  0.27329338  0.35821268    -0.01500
C1394       C  0.24109799  0.23618120  0.35610967     0.07100
C1395       C  0.20388878  0.19441089  0.35653350    -0.07500
C1396       C  0.16271280  0.18921575  0.35959172     0.04500
C1397       C  0.15850649  0.22636762  0.36211528    -0.14700
C1398       C  0.19557137  0.26818149  0.36100352    -0.08100
C1399       C  0.28470042  0.24022660  0.35567593     0.05400
C1400       C  0.30412270  0.24040802  0.36964778    -0.09200
C1401       C  0.34565145  0.24506772  0.37015328     0.00400
C1402       C  0.36890297  0.25008236  0.35637922     0.00300
C1403       C  0.34939600  0.25042967  0.34235010    -0.12700
C1404       C  0.30741014  0.24510875  0.34190583     0.00700
C1405       C  0.36355797  0.24543659  0.38505252     0.40100
C1406       C  0.28798768  0.24398967  0.32724594     0.36700
C1407       C  0.27448831  0.31671930  0.35840107     0.36400
C1408       C  0.12543260  0.14557221  0.36029902     0.37200
N1409       N  0.37727334  0.24539642  0.39708371    -0.43600
N1410       N  0.27241099  0.24281061  0.31546352    -0.44100
N1411       N  0.09555932  0.11059302  0.36093042    -0.41400
N1412       N  0.30487683  0.35141728  0.35865184    -0.42900
H1413       H  0.19258908  0.29684235  0.36300951     0.13300
H1414       H  0.20731716  0.16583167  0.35505431     0.09800
H1415       H  0.28665580  0.23699978  0.38024561     0.10900
H1416       H  0.36651356  0.25379819  0.33168069     0.16700
C1417       C  0.63795657  0.89996271  0.03533166    -0.01500
C1418       C  0.61974004  0.90679995  0.02202172     0.07100
C1419       C  0.64408491  0.91950691  0.00843607    -0.07500
C1420       C  0.68607819  0.92480616  0.00790089     0.04500
C1421       C  0.70430313  0.91722778  0.02124455    -0.14700
C1422       C  0.67961729  0.90499629  0.03484462    -0.08100
C1423       C  0.57619098  0.90299228  0.02251758     0.05400
C1424       C  0.57390964  0.94122415  0.02397468    -0.09200
C1425       C  0.53407057  0.93910314  0.02692256     0.00400
C1426       C  0.49569932  0.89801366  0.02865966     0.00300
C1427       C  0.49778962  0.85975633  0.02652689    -0.12700
C1428       C  0.53756897  0.86198008  0.02327353     0.00700
C1429       C  0.53385728  0.97954545  0.02887278     0.40100
C1430       C  0.53808975  0.82188799  0.02078845     0.36700
C1431       C  0.61485574  0.88880767  0.04975733     0.36400
C1432       C  0.70908926  0.93745341  0.99346429     0.37200
N1433       N  0.53352667  0.01190076  0.03033103    -0.43600
N1434       N  0.53824969  0.78967821  0.01863880    -0.44100
N1435       N  0.72756867  0.94781975  0.98190631    -0.41400
N1436       N  0.59640789  0.88000451  0.06132471    -0.42900
H1437       H  0.69302495  0.89976896  0.04527640     0.13300
H1438       H  0.63019536  0.92528852  0.99823704     0.09800
H1439       H  0.60361952  0.97277990  0.02338469     0.10900
H1440       H  0.46834905  0.82812671  0.02756350     0.16700
C1441       C  0.28834180  0.76898067  0.11667442    -0.01500
C1442       C  0.31367761  0.76302953  0.10554226     0.07100
C1443       C  0.32194763  0.72845387  0.10715391    -0.07500
C1444       C  0.30619575  0.70037733  0.11982159     0.04500
C1445       C  0.28197843  0.70703345  0.13134889    -0.14700
C1446       C  0.27261084  0.74101971  0.12942343    -0.08100
C1447       C  0.33320356  0.79319216  0.09233544     0.05400
C1448       C  0.37650545  0.82750228  0.09344469    -0.09200
C1449       C  0.39744040  0.85473480  0.08086862     0.00400
C1450       C  0.37493074  0.84758205  0.06681985     0.00300
C1451       C  0.33110560  0.81409592  0.06590834    -0.12700
C1452       C  0.31019144  0.78694222  0.07850695     0.00700
C1453       C  0.44180592  0.89004555  0.08271149     0.40100
C1454       C  0.26544497  0.75236321  0.07688504     0.36700
C1455       C  0.27895266  0.80411607  0.11534821     0.36400
C1456       C  0.31420703  0.66419336  0.12038115     0.37200
N1457       N  0.47735750  0.91835365  0.08418834    -0.43600
N1458       N  0.22952479  0.72478356  0.07551177    -0.44100
N1459       N  0.32053224  0.63512937  0.12071950    -0.41400
N1460       N  0.27154779  0.83235113  0.11421011    -0.42900
H1461       H  0.25396026  0.74651779  0.13809359     0.13300
H1462       H  0.34093179  0.72348093  0.09846614     0.09800
H1463       H  0.39413398  0.83263209  0.10412443     0.10900
H1464       H  0.31356681  0.80834111  0.05517626     0.16700
C1465       C  0.43639830  0.09210983  0.97527669    -0.01500
C1466       C  0.45241635  0.07820062  0.96301018     0.07100
C1467       C  0.45309024  0.03902274  0.96443826    -0.07500
C1468       C  0.43529933  0.01223859  0.97737699     0.04500
C1469       C  0.41686029  0.02495386  0.98929908    -0.14700
C1470       C  0.41886198  0.06557588  0.98823193    -0.08100
C1471       C  0.46670493  0.10303690  0.94835435     0.05400
C1472       C  0.51029633  0.12153150  0.94373848    -0.09200
C1473       C  0.52510842  0.14575595  0.93012273     0.00400
C1474       C  0.49560845  0.15152253  0.92066824     0.00300
C1475       C  0.45186728  0.13245315  0.92536112    -0.12700
C1476       C  0.43725691  0.10818174  0.93890992     0.00700
C1477       C  0.57095312  0.16497891  0.92654919     0.40100
C1478       C  0.39144655  0.08773524  0.94259705     0.36700
C1479       C  0.43688783  0.13315096  0.97468301     0.36400
C1480       C  0.43359213  0.97057317  0.97754916     0.37200
N1481       N  0.60768974  0.18012864  0.92377286    -0.43600
N1482       N  0.35467377  0.07145745  0.94545319    -0.44100
N1483       N  0.43227698  0.93720818  0.97764014    -0.41400
N1484       N  0.43709761  0.16594158  0.97411081    -0.42900
H1485       H  0.40546589  0.07603510  0.99738761     0.13300
H1486       H  0.46573054  0.02837187  0.95509207     0.09800
H1487       H  0.53300442  0.11750564  0.95093991     0.10900
H1488       H  0.42854927  0.13582975  0.91829537     0.16700
C1489       C  0.20789015  0.93097777  0.00604848    -0.01500
C1490       C  0.19304386  0.93771451  0.02020242     0.07100
C1491       C  0.21985080  0.94810760  0.03318345    -0.07500
C1492       C  0.26152537  0.95278296  0.03214009     0.04500
C1493       C  0.27676276  0.94679690  0.01787544    -0.14700
C1494       C  0.24934168  0.93545964  0.00499887    -0.08100
C1495       C  0.15046880  0.93602074  0.02147372     0.05400
C1496       C  0.11395685  0.89793600  0.02694872    -0.09200
C1497       C  0.07291687  0.89484712  0.02778184     0.00400
C1498       C  0.06831150  0.93083134  0.02334495     0.00300
C1499       C  0.10509914  0.96882573  0.01786643    -0.12700
C1500       C  0.14577028  0.97157797  0.01683409     0.00700
C1501       C  0.03580896  0.85359168  0.03228665     0.40100
C1502       C  0.18217113  0.01118894  0.01086957     0.36700
C1503       C  0.18139803  0.92015282  0.99239731     0.36400
C1504       C  0.28866767  0.96582921  0.04567238     0.37200
N1505       N  0.00604183  0.82039315  0.03575554    -0.43600
N1506       N  0.21113043  0.04298407  0.00601703    -0.44100
N1507       N  0.31019694  0.97628175  0.05657695    -0.41400
N1508       N  0.16025189  0.91155334  0.98143392    -0.42900
H1509       H  0.26069921  0.93075954  0.99400482     0.13300
H1510       H  0.20858636  0.95365103  0.04405855     0.09800
H1511       H  0.11737586  0.87023644  0.03023930     0.10900
H1512       H  0.10212341  0.99663846  0.01435889     0.16700
C1513       C  0.35566455  0.53593365  0.57924110    -0.01500
C1514       C  0.33865238  0.50634457  0.59157783     0.07100
C1515       C  0.33851777  0.46664583  0.59076483    -0.07500
C1516       C  0.35611550  0.45668257  0.57802074     0.04500
C1517       C  0.37372994  0.48659352  0.56572837    -0.14700
C1518       C  0.37287723  0.52586522  0.56646762    -0.08100
C1519       C  0.32075409  0.51626985  0.60539274     0.05400
C1520       C  0.27542467  0.49439626  0.60752135    -0.09200
C1521       C  0.25701706  0.50372558  0.62016653     0.00400
C1522       C  0.28445910  0.53480551  0.63121604     0.00300
C1523       C  0.32988944  0.55662817  0.62895667    -0.12700
C1524       C  0.34808688  0.54792439  0.61618175     0.00700
C1525       C  0.21002594  0.48256555  0.62101814     0.40100
C1526       C  0.39492808  0.57211337  0.61444949     0.36700
C1527       C  0.35598786  0.57691774  0.57950056     0.36400
C1528       C  0.35787640  0.41677457  0.57818778     0.37200
N1529       N  0.17238778  0.46586683  0.62165003    -0.43600
N1530       N  0.43250017  0.59210160  0.61321850    -0.44100
N1531       N  0.35943949  0.38486843  0.57825085    -0.41400
N1532       N  0.35635905  0.60981481  0.57976694    -0.42900
H1533       H  0.38639380  0.54909387  0.55711039     0.13300
H1534       H  0.32553994  0.44388340  0.60027074     0.09800
H1535       H  0.25433191  0.47066030  0.59906349     0.10900
H1536       H  0.35152876  0.58063036  0.63724533     0.16700
C1537       C  0.55594163  0.60291497  0.51799704    -0.01500
C1538       C  0.58915630  0.61849810  0.52914739     0.07100
C1539       C  0.58236582  0.59542128  0.54288064    -0.07500
C1540       C  0.54219483  0.55798088  0.54587825     0.04500
C1541       C  0.50865033  0.54265320  0.53481146    -0.14700
C1542       C  0.51623212  0.56470741  0.52078268    -0.08100
C1543       C  0.62963463  0.66097635  0.52732076     0.05400
C1544       C  0.62868522  0.69907729  0.53089173    -0.09200
C1545       C  0.66639979  0.74008232  0.52979932     0.00400
C1546       C  0.70606820  0.74321497  0.52509602     0.00300
C1547       C  0.70655305  0.70491952  0.52113222    -0.12700
C1548       C  0.66871428  0.66392933  0.52227321     0.00700
C1549       C  0.66306450  0.77831720  0.53314359     0.40100
C1550       C  0.67056384  0.62533566  0.51823437     0.36700
C1551       C  0.56120173  0.62698293  0.50403461     0.36400
C1552       C  0.53555269  0.53661925  0.56054355     0.37200
N1553       N  0.66029084  0.80890050  0.53579074    -0.43600
N1554       N  0.67179940  0.59427957  0.51495709    -0.44100
N1555       N  0.52988971  0.51961051  0.57233180    -0.41400
N1556       N  0.56545647  0.64669819  0.49295027    -0.42900
H1557       H  0.49026118  0.55337140  0.51235591     0.13300
H1558       H  0.60786849  0.60774396  0.55150772     0.09800
H1559       H  0.59832236  0.69666159  0.53459168     0.10900
H1560       H  0.73676472  0.70689774  0.51749576     0.16700
C1561       C  0.23227429  0.20311409  0.52373208    -0.01500
C1562       C  0.19613518  0.20855758  0.52651494     0.07100
C1563       C  0.20203069  0.25066296  0.52751423    -0.07500
C1564       C  0.24317854  0.28741636  0.52514773     0.04500
C1565       C  0.27931782  0.28214349  0.52178226    -0.14700
C1566       C  0.27352523  0.23983189  0.52135996    -0.08100
C1567       C  0.15129580  0.17072302  0.52676658     0.05400
C1568       C  0.13173321  0.15197717  0.54079775    -0.09200
C1569       C  0.08991649  0.11496600  0.54126889     0.00400
C1570       C  0.06716118  0.09622327  0.52744457     0.00300
C1571       C  0.08672077  0.11589541  0.51343070    -0.12700
C1572       C  0.12836728  0.15291759  0.51301439     0.00700
C1573       C  0.07232362  0.09580723  0.55603040     0.40100
C1574       C  0.14734340  0.17204584  0.49836711     0.36700
C1575       C  0.22729560  0.16007439  0.52282399     0.36400
C1576       C  0.24675336  0.32992710  0.52518438     0.37200
N1577       N  0.05850319  0.08066970  0.56791265    -0.43600
N1578       N  0.16290350  0.18766742  0.48670558    -0.44100
N1579       N  0.24974273  0.36404615  0.52521073    -0.41400
N1580       N  0.22302173  0.12546317  0.52213474    -0.42900
H1581       H  0.30107601  0.23548706  0.51883032     0.13300
H1582       H  0.17403993  0.25470051  0.52950466     0.09800
H1583       H  0.14953970  0.16582264  0.55136556     0.10900
H1584       H  0.06949046  0.10220318  0.50275491     0.16700
C1585       C  0.43193700  0.28991585  0.43692478    -0.01500
C1586       C  0.44745883  0.33367609  0.44121738     0.07100
C1587       C  0.48012762  0.36733258  0.43245424    -0.07500
C1588       C  0.49740912  0.35804053  0.41946156     0.04500
C1589       C  0.48252245  0.31397397  0.41520536    -0.14700
C1590       C  0.44952199  0.28042693  0.42410284    -0.08100
C1591       C  0.43119403  0.34458770  0.45525017     0.05400
C1592       C  0.45667284  0.35594612  0.46858360    -0.09200
C1593       C  0.44070109  0.36190431  0.48252039     0.00400
C1594       C  0.39825795  0.35605128  0.48326553     0.00300
C1595       C  0.37343164  0.34629059  0.46976175    -0.12700
C1596       C  0.38978246  0.34106767  0.45577405     0.00700
C1597       C  0.46765085  0.37185252  0.49602247     0.40100
C1598       C  0.36377297  0.33239299  0.44208818     0.36700
C1599       C  0.39872339  0.25421410  0.44578558     0.36400
C1600       C  0.52927698  0.39459094  0.41055869     0.37200
N1601       N  0.48934794  0.37995402  0.50682446    -0.43600
N1602       N  0.34312078  0.32587715  0.43108873    -0.44100
N1603       N  0.55470741  0.42402925  0.40344998    -0.41400
N1604       N  0.37213884  0.22576072  0.45294377    -0.42900
H1605       H  0.43759684  0.24648236  0.42116418     0.13300
H1606       H  0.49196108  0.40103645  0.43574311     0.09800
H1607       H  0.48862213  0.35885801  0.46818148     0.10900
H1608       H  0.34109022  0.34242587  0.47019044     0.16700
C1609       C  0.66914582  0.43078391  0.74499116    -0.01500
C1610       C  0.66284047  0.45244096  0.75739824     0.07100
C1611       C  0.67314103  0.49602437  0.75574778    -0.07500
C1612       C  0.69050963  0.51852218  0.74195419     0.04500
C1613       C  0.69794387  0.49710831  0.72961186    -0.14700
C1614       C  0.68655688  0.45314010  0.73127995    -0.08100
C1615       C  0.64840524  0.43074768  0.77245726     0.05400
C1616       C  0.68001811  0.43327305  0.78267617    -0.09200
C1617       C  0.66800974  0.41047530  0.79657085     0.00400
C1618       C  0.62327419  0.38392364  0.80035025     0.00300
C1619       C  0.59179087  0.38278553  0.79020635    -0.12700
C1620       C  0.60400229  0.40585825  0.77636424     0.00700
C1621       C  0.70257005  0.41593865  0.80669554     0.40100
C1622       C  0.57040542  0.40276044  0.76621240     0.36700
C1623       C  0.65857680  0.38578528  0.74615030     0.36400
C1624       C  0.70209661  0.56384446  0.74107490     0.37200
N1625       N  0.73088748  0.42091005  0.81460968    -0.43600
N1626       N  0.54328798  0.40016806  0.75813904    -0.44100
N1627       N  0.71112929  0.60013127  0.74053112    -0.41400
N1628       N  0.65008856  0.34970994  0.74702386    -0.42900
H1629       H  0.69161389  0.43625004  0.72182031     0.13300
H1630       H  0.66846838  0.51269782  0.76536429     0.09800
H1631       H  0.71426985  0.45281554  0.77967280     0.10900
H1632       H  0.55735828  0.36284476  0.79286229     0.16700
C1633       C  0.85533593  0.49945727  0.68633716    -0.01500
C1634       C  0.89454632  0.54011047  0.68626490     0.07100
C1635       C  0.89286616  0.57867306  0.68784432    -0.07500
C1636       C  0.85306023  0.57726153  0.69005805     0.04500
C1637       C  0.81388858  0.53668061  0.69058686    -0.14700
C1638       C  0.81534711  0.49800410  0.68852747    -0.08100
C1639       C  0.93806593  0.54352379  0.68604467     0.05400
C1640       C  0.96316433  0.55674635  0.67260811    -0.09200
C1641       C  0.00615141  0.56443314  0.67249241     0.00400
C1642       C  0.02509988  0.55983921  0.68619887     0.00300
C1643       C  0.99904353  0.54539534  0.69947486    -0.12700
C1644       C  0.95614453  0.53723584  0.69950189     0.00700
C1645       C  0.02910214  0.57548537  0.65804337     0.40100
C1646       C  0.93173054  0.52349737  0.71364294     0.36700
C1647       C  0.85561994  0.45900771  0.68456159     0.36400
C1648       C  0.85343852  0.61766840  0.69289685     0.37200
N1649       N  0.04707881  0.58403095  0.64638019    -0.43600
N1650       N  0.91243158  0.51240764  0.72502548    -0.44100
N1651       N  0.85341363  0.64984337  0.69527387    -0.41400
N1652       N  0.85591971  0.42662631  0.68312365    -0.42900
H1653       H  0.78536412  0.46668348  0.68904756     0.13300
H1654       H  0.92299678  0.60991718  0.68799971     0.09800
H1655       H  0.94913513  0.56124208  0.66219651     0.10900
H1656       H  0.01235766  0.54095014  0.71004241     0.16700
C1657       C  0.42592775  0.53492862  0.68820152    -0.01500
C1658       C  0.46705579  0.57154579  0.68504261     0.07100
C1659       C  0.47089754  0.61290309  0.68381805    -0.07500
C1660       C  0.43434054  0.61809054  0.68543917     0.04500
C1661       C  0.39286240  0.58138852  0.68844227    -0.14700
C1662       C  0.38932429  0.54005824  0.68996842    -0.08100
C1663       C  0.50667677  0.56766396  0.68302038     0.05400
C1664       C  0.51273873  0.55084074  0.66924345    -0.09200
C1665       C  0.55162057  0.55057255  0.66645609     0.00400
C1666       C  0.58562221  0.56859463  0.67737179     0.00300
C1667       C  0.57829143  0.58260201  0.69154594    -0.12700
C1668       C  0.53900231  0.58175393  0.69449203     0.00700
C1669       C  0.55546923  0.53036401  0.65261594     0.40100
C1670       C  0.53221650  0.59490295  0.70942005     0.36700
C1671       C  0.42096145  0.49203849  0.68986026     0.36400
C1672       C  0.44057066  0.66162939  0.68453346     0.37200
N1673       N  0.55828175  0.51342517  0.64167371    -0.43600
N1674       N  0.52649595  0.60482683  0.72146132    -0.44100
N1675       N  0.44555108  0.69652940  0.68387140    -0.41400
N1676       N  0.41758382  0.45791504  0.69118662    -0.42900
H1677       H  0.35774421  0.51156584  0.69228402     0.13300
H1678       H  0.50263444  0.64123858  0.68155863     0.09800
H1679       H  0.48727141  0.53839341  0.66060745     0.10900
H1680       H  0.60383996  0.59546310  0.70015848     0.16700
C1681       C  0.74234932  0.72048141  0.63461648    -0.01500
C1682       C  0.76249370  0.71037554  0.62263991     0.07100
C1683       C  0.76380913  0.67144239  0.62328872    -0.07500
C1684       C  0.74440967  0.64207018  0.63549498     0.04500
C1685       C  0.72263553  0.65129959  0.64721619    -0.14700
C1686       C  0.72235695  0.69088690  0.64668430    -0.08100
C1687       C  0.78107945  0.73940483  0.60910600     0.05400
C1688       C  0.82568065  0.77059287  0.60882371    -0.09200
C1689       C  0.84399413  0.79948375  0.59641509     0.00400
C1690       C  0.81742314  0.79686918  0.58385663     0.00300
C1691       C  0.77273300  0.76537774  0.58422789    -0.12700
C1692       C  0.75449619  0.73691067  0.59668800     0.00700
C1693       C  0.88933424  0.83312794  0.59739942     0.40100
C1694       C  0.70834426  0.70548935  0.59652669     0.36700
C1695       C  0.74193894  0.76108956  0.63475679     0.36400
C1696       C  0.74610377  0.60213399  0.63544531     0.37200
N1697       N  0.92557339  0.86023165  0.59840613    -0.43600
N1698       N  0.67133598  0.68038339  0.59638642    -0.44100
N1699       N  0.74777920  0.57028925  0.63546767    -0.41400
N1700       N  0.74184959  0.79376042  0.63493760    -0.42900
H1701       H  0.70631736  0.69862760  0.65572590     0.13300
H1702       H  0.77948272  0.66372349  0.61411119     0.09800
H1703       H  0.84601962  0.77295376  0.61848994     0.10900
H1704       H  0.75189225  0.76287937  0.57470779     0.16700
C1705       C  0.22205119  0.95383428  0.85191475    -0.01500
C1706       C  0.25590052  0.96259872  0.86233116     0.07100
C1707       C  0.24808692  0.93377965  0.87454670    -0.07500
C1708       C  0.20636813  0.89762681  0.87688676     0.04500
C1709       C  0.17211234  0.89018517  0.86685871    -0.14700
C1710       C  0.18049623  0.91774927  0.85424425    -0.08100
C1711       C  0.29740610  0.00470372  0.86187703     0.05400
C1712       C  0.29736288  0.04188786  0.86736824    -0.09200
C1713       C  0.33524806  0.08294326  0.86707059     0.00400
C1714       C  0.37444262  0.08717628  0.86121042     0.00300
C1715       C  0.37419256  0.04962684  0.85567839    -0.12700
C1716       C  0.33612836  0.00862195  0.85596266     0.00700
C1717       C  0.33205168  0.11999509  0.87229097     0.40100
C1718       C  0.33742638  0.97139615  0.84982589     0.36700
C1719       C  0.22902344  0.98199244  0.83896222     0.36400
C1720       C  0.19906730  0.86917671  0.88977784     0.37200
N1721       N  0.32877672  0.14926775  0.87648583    -0.43600
N1722       N  0.33882400  0.94184490  0.84479580    -0.44100
N1723       N  0.19308661  0.84627279  0.90009273    -0.41400
N1724       N  0.23448883  0.00439510  0.82853838    -0.42900
H1725       H  0.15419564  0.91164892  0.84643360     0.13300
H1726       H  0.27410785  0.94055654  0.88258111     0.09800
H1727       H  0.26730785  0.03877333  0.87178830     0.10900
H1728       H  0.40392620  0.05220244  0.85117820     0.16700
C1729       C  0.00116776  0.80627298  0.92027621    -0.01500
C1730       C  0.99297210  0.84119861  0.92158350     0.07100
C1731       C  0.00257892  0.86989371  0.90920987    -0.07500
C1732       C  0.02185612  0.86527678  0.89583222     0.04500
C1733       C  0.03118758  0.83091935  0.89465779    -0.14700
C1734       C  0.01978072  0.80119992  0.90683799    -0.08100
C1735       C  0.97840767  0.85093270  0.93623119     0.05400
C1736       C  0.01016723  0.87827263  0.94682308    -0.09200
C1737       C  0.99843849  0.88971243  0.96066030     0.00400
C1738       C  0.95380507  0.87377206  0.96404984     0.00300
C1739       C  0.92208582  0.84580174  0.95342836    -0.12700
C1740       C  0.93401626  0.83425597  0.93964691     0.00700
C1741       C  0.03301438  0.91659699  0.97125463     0.40100
C1742       C  0.90018163  0.80513629  0.92923250     0.36700
C1743       C  0.99227807  0.77623594  0.93277768     0.36400
C1744       C  0.03218939  0.89657121  0.88365135     0.37200
N1745       N  0.06113592  0.93801668  0.97961643    -0.43600
N1746       N  0.87285398  0.78157227  0.92098061    -0.44100
N1747       N  0.04023534  0.92207580  0.87404913    -0.41400
N1748       N  0.98529535  0.75205358  0.94275681    -0.42900
H1749       H  0.02728438  0.77505327  0.90611462     0.13300
H1750       H  0.99631812  0.89683008  0.91022731     0.09800
H1751       H  0.04435641  0.89069027  0.94424306     0.10900
H1752       H  0.88778168  0.83332592  0.95578079     0.16700
C1753       C  0.91189369  0.54504703  0.85827330    -0.01500
C1754       C  0.87244416  0.54571802  0.85782332     0.07100
C1755       C  0.87364582  0.58563042  0.85575545    -0.07500
C1756       C  0.91331763  0.62446265  0.85364947     0.04500
C1757       C  0.95274252  0.62361529  0.85358172    -0.14700
C1758       C  0.95154936  0.58379428  0.85604136    -0.08100
C1759       C  0.82938220  0.50526450  0.85913976     0.05400
C1760       C  0.80219600  0.50073649  0.87151433    -0.09200
C1761       C  0.76002506  0.46443484  0.87267460     0.00400
C1762       C  0.74421837  0.43170020  0.86113526     0.00300
C1763       C  0.77268206  0.43577208  0.84914794    -0.12700
C1764       C  0.81429824  0.47234632  0.84787158     0.00700
C1765       C  0.73455161  0.46184753  0.88596098     0.40100
C1766       C  0.83981468  0.47623347  0.83443014     0.36700
C1767       C  0.91253191  0.50515743  0.86112557     0.36400
C1768       C  0.91244782  0.66426582  0.85087530     0.37200
N1769       N  0.71441672  0.45995167  0.89667611    -0.43600
N1770       N  0.85982171  0.47904491  0.82357384    -0.44100
N1771       N  0.91169801  0.69615824  0.84870429    -0.41400
N1772       N  0.91313176  0.47323169  0.86340255    -0.42900
H1773       H  0.98174443  0.58298267  0.85609023     0.13300
H1774       H  0.84334430  0.58622445  0.85541507     0.09800
H1775       H  0.81395557  0.52595754  0.88025871     0.10900
H1776       H  0.76226579  0.41069993  0.84042542     0.16700
C1777       C  0.17041469  0.68079204  0.77368819    -0.01500
C1778       C  0.12641049  0.66125736  0.77825508     0.07100
C1779       C  0.09414776  0.62872900  0.76893694    -0.07500
C1780       C  0.10492712  0.61530878  0.75529647     0.04500
C1781       C  0.14914464  0.63480775  0.75063174    -0.14700
C1782       C  0.18134136  0.66750289  0.76006768    -0.08100
C1783       C  0.11275735  0.67483392  0.79241500     0.05400
C1784       C  0.08527538  0.69259124  0.79097214    -0.09200
C1785       C  0.06874637  0.70273262  0.80394301     0.00400
C1786       C  0.07951810  0.69498332  0.81870166     0.00300
C1787       C  0.10773962  0.67814076  0.82021977    -0.12700
C1788       C  0.12444797  0.66809202  0.80723289     0.00700
C1789       C  0.03945873  0.71954592  0.80187224     0.40100
C1790       C  0.15182326  0.64905066  0.80937164     0.36700
C1791       C  0.20492895  0.71518354  0.78260364     0.36400
C1792       C  0.06954703  0.58229223  0.74627881     0.37200
N1793       N  0.01598385  0.73304406  0.80024721    -0.43600
N1794       N  0.17406750  0.63409634  0.81098081    -0.44100
N1795       N  0.04082303  0.55569848  0.73921013    -0.41400
N1796       N  0.23265102  0.74252924  0.78979800    -0.42900
H1797       H  0.21545099  0.68287969  0.75684812     0.13300
H1798       H  0.06019992  0.61374553  0.77235670     0.09800
H1799       H  0.07606887  0.69778030  0.77964615     0.10900
H1800       H  0.11547802  0.67142075  0.83156424     0.16700
C1801       C  0.30875854  0.10467499  0.25993174    -0.01500
C1802       C  0.34687410  0.14558368  0.25801306     0.07100
C1803       C  0.35620014  0.16562902  0.24353458    -0.07500
C1804       C  0.32841478  0.14500453  0.23096947     0.04500
C1805       C  0.29046720  0.10361217  0.23287027    -0.14700
C1806       C  0.28100486  0.08421762  0.24746614    -0.08100
C1807       C  0.37862557  0.16597069  0.27079747     0.05400
C1808       C  0.40731789  0.15060125  0.27389403    -0.09200
C1809       C  0.43601994  0.16645219  0.28639335     0.00400
C1810       C  0.43602945  0.19828644  0.29636251     0.00300
C1811       C  0.40759283  0.21420048  0.29297074    -0.12700
C1812       C  0.37914039  0.19837155  0.28033320     0.00700
C1813       C  0.46557358  0.14985253  0.28831797     0.40100
C1814       C  0.35007839  0.21509645  0.27752343     0.36700
C1815       C  0.29775732  0.08279984  0.27458915     0.36400
C1816       C  0.34071016  0.16588015  0.21615023     0.37200
N1817       N  0.48910006  0.13632123  0.28971646    -0.43600
N1818       N  0.32679006  0.22850410  0.27522645    -0.44100
N1819       N  0.35056882  0.18259957  0.20426783    -0.41400
N1820       N  0.28894878  0.06522740  0.28633080    -0.42900
H1821       H  0.25182872  0.05265934  0.24911071     0.13300
H1822       H  0.38578833  0.19687857  0.24197517     0.09800
H1823       H  0.40707064  0.12578788  0.26650407     0.10900
H1824       H  0.40686233  0.23846424  0.30037119     0.16700
C1825       C  0.24854123  0.84478984  0.20090894    -0.01500
C1826       C  0.21014124  0.84453434  0.19650492     0.07100
C1827       C  0.17534645  0.80638491  0.19034746    -0.07500
C1828       C  0.17796650  0.76830219  0.18880202     0.04500
C1829       C  0.21643290  0.76824152  0.19329346    -0.14700
C1830       C  0.25141531  0.80690072  0.19930537    -0.08100
C1831       C  0.20565807  0.88369308  0.19869608     0.05400
C1832       C  0.21166508  0.91087728  0.18614817    -0.09200
C1833       C  0.21379422  0.95123999  0.18820127     0.00400
C1834       C  0.20982753  0.96484325  0.20308726     0.00300
C1835       C  0.20121259  0.93622243  0.21547484    -0.12700
C1836       C  0.19893556  0.89587707  0.21337175     0.00700
C1837       C  0.22297328  0.97916767  0.17500400     0.40100
C1838       C  0.19060326  0.86775181  0.22645174     0.36700
C1839       C  0.28543568  0.88377370  0.20704772     0.36400
C1840       C  0.13972434  0.72931994  0.18336226     0.37200
N1841       N  0.23020004  0.00149130  0.16441893    -0.43600
N1842       N  0.18382514  0.84496262  0.23686578    -0.44100
N1843       N  0.10894107  0.69815719  0.17903923    -0.41400
N1844       N  0.31486698  0.91516542  0.21194202    -0.42900
H1845       H  0.28112295  0.80756007  0.20278592     0.13300
H1846       H  0.14566625  0.80610199  0.18708234     0.09800
H1847       H  0.21660064  0.90137452  0.17483378     0.10900
H1848       H  0.19736589  0.94594333  0.22689716     0.16700
C1849       C  0.07038793  0.00999991  0.13841598    -0.01500
C1850       C  0.08043785  0.03586528  0.12510934     0.07100
C1851       C  0.11521465  0.07907642  0.12538882    -0.07500
C1852       C  0.13879272  0.09734774  0.13890665     0.04500
C1853       C  0.12713308  0.07231549  0.15251762    -0.14700
C1854       C  0.09369438  0.02833389  0.15199162    -0.08100
C1855       C  0.05323558  0.01951056  0.11109465     0.05400
C1856       C  0.02043875  0.02999719  0.10881231    -0.09200
C1857       C  0.99408044  0.01584133  0.09569294     0.00400
C1858       C  0.00086092  0.99106430  0.08438416     0.00300
C1859       C  0.03341165  0.98002972  0.08689176    -0.12700
C1860       C  0.05946888  0.99400162  0.10011233     0.00700
C1861       C  0.95927517  0.02574451  0.09455637     0.40100
C1862       C  0.09257562  0.98209337  0.10217911     0.36700
C1863       C  0.03555721  0.96500009  0.13846258     0.36400
C1864       C  0.17502978  0.14165146  0.13849060     0.37200
N1865       N  0.93137207  0.03368749  0.09382748    -0.43600
N1866       N  0.11908429  0.97252947  0.10391837    -0.44100
N1867       N  0.20412039  0.17713044  0.13815548    -0.41400
N1868       N  0.00773978  0.92888061  0.13844652    -0.42900
H1869       H  0.08481489  0.00871604  0.16233574     0.13300
H1870       H  0.12344331  0.09876215  0.11507238     0.09800
H1871       H  0.01520992  0.04906216  0.11741572     0.10900
H1872       H  0.03899306  0.96097235  0.07839718     0.16700
C1873       C  0.22456689  0.26881410  0.19431991    -0.01500
C1874       C  0.18960537  0.27660134  0.19626206     0.07100
C1875       C  0.14672676  0.24119009  0.19660210    -0.07500
C1876       C  0.13823862  0.19841270  0.19421099     0.04500
C1877       C  0.17315552  0.19090763  0.19140253    -0.14700
C1878       C  0.21612335  0.22620549  0.19187200    -0.08100
C1879       C  0.19679217  0.32155492  0.19597088     0.05400
C1880       C  0.20308588  0.34200059  0.18171156    -0.09200
C1881       C  0.20885561  0.38398992  0.18054971     0.00400
C1882       C  0.20879305  0.40655821  0.19393654     0.00300
C1883       C  0.20327442  0.38619791  0.20828659    -0.12700
C1884       C  0.19690726  0.34379839  0.20936779     0.00700
C1885       C  0.21577665  0.40330213  0.16548367     0.40100
C1886       C  0.19042629  0.32362511  0.22424965     0.36700
C1887       C  0.26929059  0.30410125  0.19464662     0.36400
C1888       C  0.09364180  0.16295881  0.19469993     0.37200
N1889       N  0.22123753  0.41846006  0.15336244    -0.43600
N1890       N  0.18515735  0.30729737  0.23615473    -0.44100
N1891       N  0.05776645  0.13478386  0.19520541    -0.41400
N1892       N  0.30520321  0.33222890  0.19504164    -0.42900
H1893       H  0.24311571  0.22057038  0.18985540     0.13300
H1894       H  0.11982782  0.24718863  0.19821509     0.09800
H1895       H  0.20318535  0.32482974  0.17141298     0.10900
H1896       H  0.20291432  0.40301559  0.21863835     0.16700
C1897       C  0.25697269  0.92384602  0.35383743    -0.01500
C1898       C  0.25493601  0.96042437  0.34856323     0.07100
C1899       C  0.21614075  0.95458116  0.34206723    -0.07500
C1900       C  0.17967963  0.91255833  0.34056219     0.04500
C1901       C  0.18216489  0.87592152  0.34553342    -0.14700
C1902       C  0.22075120  0.88196833  0.35224087    -0.08100
C1903       C  0.29412766  0.00450841  0.34903549     0.05400
C1904       C  0.32525092  0.01610478  0.33746569    -0.09200
C1905       C  0.36523678  0.05520866  0.33821795     0.00400
C1906       C  0.37516050  0.08355451  0.35106651     0.00300
C1907       C  0.34269726  0.07213560  0.36237328    -0.12700
C1908       C  0.30246308  0.03316952  0.36138401     0.00700
C1909       C  0.39475791  0.06455413  0.32551430     0.40100
C1910       C  0.27032038  0.02271204  0.37324792     0.36700
C1911       C  0.29616215  0.92865254  0.36076647     0.36400
C1912       C  0.14066561  0.90749781  0.33340028     0.37200
N1913       N  0.41789585  0.07144996  0.31521408    -0.43600
N1914       N  0.24420666  0.01411130  0.38264508    -0.44100
N1915       N  0.10928232  0.90316107  0.32766047    -0.41400
N1916       N  0.32765379  0.93271272  0.36631561    -0.42900
H1917       H  0.22259252  0.85382217  0.35614924     0.13300
H1918       H  0.21467439  0.98272972  0.33793809     0.09800
H1919       H  0.31845718  0.99396759  0.32789314     0.10900
H1920       H  0.34875176  0.09332587  0.37216262     0.16700
C1921       C  0.09197135  0.69581281  0.29460707    -0.01500
C1922       C  0.12968758  0.69240773  0.29300009     0.07100
C1923       C  0.16019867  0.70632576  0.30494329    -0.07500
C1924       C  0.15475921  0.72575597  0.31809887     0.04500
C1925       C  0.11855378  0.73208655  0.31929853    -0.14700
C1926       C  0.08669365  0.71570089  0.30769442    -0.08100
C1927       C  0.13965039  0.67754311  0.27850221     0.05400
C1928       C  0.16037166  0.70817267  0.26677713    -0.09200
C1929       C  0.17226176  0.69635677  0.25307647     0.00400
C1930       C  0.16333127  0.65303013  0.25096296     0.00300
C1931       C  0.14153555  0.62209728  0.26263591    -0.12700
C1932       C  0.12993433  0.63414041  0.27638542     0.00700
C1933       C  0.19221459  0.72899982  0.24123303     0.40100
C1934       C  0.10840796  0.60178567  0.28823115     0.36700
C1935       C  0.05888731  0.67982488  0.28281599     0.36400
C1936       C  0.18656713  0.73869137  0.33024604     0.37200
N1937       N  0.20805549  0.75537457  0.23179745    -0.43600
N1938       N  0.09115107  0.57613317  0.29780874    -0.44100
N1939       N  0.21193785  0.74877067  0.34001563    -0.41400
N1940       N  0.03240376  0.66665079  0.27335202    -0.42900
H1941       H  0.05859279  0.72007854  0.30856327     0.13300
H1942       H  0.18883453  0.70292539  0.30380478     0.09800
H1943       H  0.16745517  0.74152652  0.26839413     0.10900
H1944       H  0.13440086  0.58868877  0.26115071     0.16700
C1945       C  0.95696156  0.82211100  0.41018603    -0.01500
C1946       C  0.98127397  0.82542672  0.42342148     0.07100
C1947       C  0.01211898  0.81166851  0.42284233    -0.07500
C1948       C  0.01796910  0.79345598  0.40939087     0.04500
C1949       C  0.99294096  0.78923312  0.39623994    -0.14700
C1950       C  0.96311623  0.80435363  0.39671490    -0.08100
C1951       C  0.97117019  0.83842126  0.43833684     0.05400
C1952       C  0.93718452  0.80629241  0.44711150    -0.09200
C1953       C  0.92373169  0.81696807  0.46071765     0.00400
C1954       C  0.94505326  0.86094686  0.46597373     0.00300
C1955       C  0.98000601  0.89288486  0.45721508    -0.12700
C1956       C  0.99284761  0.88202599  0.44346779     0.00700
C1957       C  0.88739871  0.78180808  0.46868299     0.40100
C1958       C  0.02745787  0.91631489  0.43459650     0.36700
C1959       C  0.92397626  0.83467374  0.41043889     0.36400
C1960       C  0.04721649  0.77618061  0.40965039     0.37200
N1961       N  0.85774228  0.75327401  0.47473566    -0.43600
N1962       N  0.05511725  0.94396553  0.42749931    -0.44100
N1963       N  0.07032507  0.76193154  0.40968178    -0.41400
N1964       N  0.89735989  0.84448407  0.41070629    -0.42900
H1965       H  0.94350059  0.80081997  0.38668205     0.13300
H1966       H  0.03023696  0.81342989  0.43309898     0.09800
H1967       H  0.92038181  0.77270928  0.44308460     0.10900
H1968       H  0.99670922  0.92678867  0.46085093     0.16700
C1969       C  0.88476646  0.58045073  0.35916266    -0.01500
C1970       C  0.84265698  0.57520276  0.35904989     0.07100
C1971       C  0.83775621  0.61201957  0.36010172    -0.07500
C1972       C  0.87419785  0.65389228  0.36158490     0.04500
C1973       C  0.91643222  0.65919487  0.36235601    -0.14700
C1974       C  0.92124340  0.62225008  0.36086088    -0.08100
C1975       C  0.80308265  0.53144349  0.35852950     0.05400
C1976       C  0.78089391  0.51311291  0.37222813    -0.09200
C1977       C  0.74290751  0.47208956  0.37237384     0.00400
C1978       C  0.72641215  0.44849782  0.35849274     0.00300
C1979       C  0.74904539  0.46721858  0.34475350    -0.12700
C1980       C  0.78702128  0.50839628  0.34469146     0.00700
C1981       C  0.72245508  0.45494335  0.38702880     0.40100
C1982       C  0.80879373  0.52678925  0.33033213     0.36700
C1983       C  0.89114680  0.54332329  0.35793194     0.36400
C1984       C  0.86746114  0.69089967  0.36195771     0.37200
N1985       N  0.70613852  0.44145842  0.39879656    -0.43600
N1986       N  0.82648253  0.54181978  0.31888404    -0.44100
N1987       N  0.86217708  0.72063081  0.36223664    -0.41400
N1988       N  0.89625962  0.51357701  0.35689230    -0.42900
H1989       H  0.95348797  0.62591332  0.36146468     0.13300
H1990       H  0.80530774  0.60793152  0.35981838     0.09800
H1991       H  0.79348003  0.53098771  0.38287721     0.10900
H1992       H  0.73677960  0.44995564  0.33398816     0.16700
C1993       C  0.12012962  0.16985698  0.03895215    -0.01500
C1994       C  0.14222339  0.19047015  0.02533808     0.07100
C1995       C  0.12564520  0.17034283  0.01118775    -0.07500
C1996       C  0.08678709  0.13015633  0.01039723     0.04500
C1997       C  0.06452421  0.10911141  0.02405079    -0.14700
C1998       C  0.08177439  0.12932506  0.03823185    -0.08100
C1999       C  0.18175654  0.23401524  0.02575250     0.05400
C2000       C  0.22268869  0.23746524  0.02413663    -0.09200
C2001       C  0.26092082  0.27753181  0.02654345     0.00400
C2002       C  0.25797212  0.31449725  0.03091193     0.00300
C2003       C  0.21692478  0.31129371  0.03155999    -0.12700
C2004       C  0.17897342  0.27156147  0.02885838     0.00700
C2005       C  0.30230498  0.27917642  0.02502458     0.40100
C2006       C  0.13748077  0.26991078  0.02946648     0.36700
C2007       C  0.13589797  0.19022288  0.05373581     0.36400
C2008       C  0.06926530  0.11283900  0.99541072     0.37200
N2009       N  0.33521998  0.28008691  0.02358641    -0.43600
N2010       N  0.10427629  0.26872987  0.02984729    -0.44100
N2011       N  0.05509667  0.09916092  0.98339838    -0.41400
N2012       N  0.14851011  0.20694238  0.06551783    -0.42900
H2013       H  0.06513950  0.11357122  0.04878631     0.13300
H2014       H  0.14243423  0.18674468  0.00073166     0.09800
H2015       H  0.22466323  0.20853282  0.02149307     0.10900
H2016       H  0.21453139  0.33986234  0.03443718     0.16700
C2017       C  0.31835262  0.49262949  0.08051611    -0.01500
C2018       C  0.31010069  0.47155116  0.09485413     0.07100
C2019       C  0.31081808  0.43235956  0.09611896    -0.07500
C2020       C  0.31877118  0.41366261  0.08322718     0.04500
C2021       C  0.32715060  0.43487103  0.06887115    -0.14700
C2022       C  0.32747708  0.47460630  0.06774317    -0.08100
C2023       C  0.29886381  0.48922264  0.10843228     0.05400
C2024       C  0.25867831  0.48795471  0.10863507    -0.09200
C2025       C  0.24738368  0.50585690  0.12087555     0.00400
C2026       C  0.27651332  0.52522816  0.13327629     0.00300
C2027       C  0.31696833  0.52697876  0.13300197    -0.12700
C2028       C  0.32818633  0.50889653  0.12074291     0.00700
C2029       C  0.20657941  0.50569132  0.12012983     0.40100
C2030       C  0.37008880  0.51137080  0.12093670     0.36700
C2031       C  0.31632628  0.53212269  0.07859088     0.36400
C2032       C  0.31775368  0.37253947  0.08490426     0.37200
N2033       N  0.17404918  0.50586045  0.11951355    -0.43600
N2034       N  0.40368796  0.51335474  0.12113338    -0.44100
N2035       N  0.31671875  0.33943847  0.08607232    -0.41400
N2036       N  0.31413975  0.56348143  0.07711910    -0.42900
H2037       H  0.33302617  0.49061717  0.05669780     0.13300
H2038       H  0.30408679  0.41586466  0.10710287     0.09800
H2039       H  0.23630210  0.47334643  0.09908913     0.10900
H2040       H  0.33945633  0.54172781  0.14251172     0.16700
C2041       C  0.42943518  0.36649132  0.96394138    -0.01500
C2042       C  0.47067428  0.37126363  0.96092901     0.07100
C2043       C  0.50466264  0.39352919  0.97149761    -0.07500
C2044       C  0.49861894  0.41275580  0.98460389     0.04500
C2045       C  0.45833143  0.41103016  0.98699918    -0.14700
C2046       C  0.42366918  0.38663448  0.97683119    -0.08100
C2047       C  0.48008476  0.35650461  0.94625755     0.05400
C2048       C  0.50554077  0.38816045  0.93532184    -0.09200
C2049       C  0.51545634  0.37620880  0.92123349     0.00400
C2050       C  0.50050974  0.33163219  0.91804992     0.00300
C2051       C  0.47408771  0.29996520  0.92893251    -0.12700
C2052       C  0.46378301  0.31201021  0.94292096     0.00700
C2053       C  0.53916579  0.41025506  0.91009625     0.40100
C2054       C  0.43710191  0.27824558  0.95376597     0.36700
C2055       C  0.39300646  0.34224890  0.95372038     0.36400
C2056       C  0.53386295  0.43334979  0.99555016     0.37200
N2057       N  0.55777740  0.43797292  0.90128134    -0.43600
N2058       N  0.41551124  0.25109797  0.96240662    -0.44100
N2059       N  0.56188219  0.44974778  0.00440453    -0.41400
N2060       N  0.36370303  0.32239940  0.94560688    -0.42900
H2061       H  0.39241509  0.38455794  0.97867252     0.13300
H2062       H  0.53612902  0.39632814  0.96938041     0.09800
H2063       H  0.51722573  0.42237629  0.93775314     0.10900
H2064       H  0.46226027  0.26564509  0.92668284     0.16700
C2065       C  0.63395276  0.70932072  0.02747912    -0.01500
C2066       C  0.63064756  0.67079919  0.02158146     0.07100
C2067       C  0.66822822  0.67057944  0.01676187    -0.07500
C2068       C  0.70907436  0.70861273  0.01743334     0.04500
C2069       C  0.71242746  0.74785928  0.02288919    -0.14700
C2070       C  0.67466460  0.74748173  0.02809290    -0.08100
C2071       C  0.58831532  0.63001267  0.02041763     0.05400
C2072       C  0.56112125  0.62411667  0.00787729    -0.09200
C2073       C  0.52293422  0.58400404  0.00555151     0.00400
C2074       C  0.51171319  0.54953378  0.01596087     0.00300
C2075       C  0.53785472  0.55623534  0.02889535    -0.12700
C2076       C  0.57617866  0.59614549  0.03114784     0.00700
C2077       C  0.49599472  0.57854329  0.99237486     0.40100
C2078       C  0.60327887  0.60135956  0.04425859     0.36700
C2079       C  0.59607017  0.71021294  0.03306924     0.36400
C2080       C  0.74691639  0.70586438  0.01300273     0.37200
N2081       N  0.47415612  0.57396246  0.98186503    -0.43600
N2082       N  0.62516121  0.60570448  0.05473096    -0.44100
N2083       N  0.77715190  0.70346805  0.00950588    -0.41400
N2084       N  0.56568583  0.71080932  0.03759754    -0.42900
H2085       H  0.67677714  0.77724765  0.03241731     0.13300
H2086       H  0.66554634  0.64049850  0.01249986     0.09800
H2087       H  0.57045982  0.65040866  0.99968712     0.10900
H2088       H  0.52928376  0.52958768  0.03686234     0.16700
C2089       C  0.97788051  0.46961914  0.58918670    -0.01500
C2090       C  0.02225768  0.48124904  0.58919446     0.07100
C2091       C  0.04040772  0.47423859  0.57596047    -0.07500
C2092       C  0.01451016  0.45413905  0.56304111     0.04500
C2093       C  0.96992349  0.44154195  0.56319152    -0.14700
C2094       C  0.95224887  0.45034746  0.57615958    -0.08100
C2095       C  0.04885062  0.49621019  0.60337697     0.05400
C2096       C  0.03781046  0.46644334  0.61548069    -0.09200
C2097       C  0.06236915  0.47818582  0.62899392     0.00400
C2098       C  0.09838674  0.52089877  0.63067021     0.00300
C2099       C  0.10923718  0.55077470  0.61856160    -0.12700
C2100       C  0.08534351  0.53854818  0.60487046     0.00700
C2101       C  0.04899520  0.44591934  0.64098445     0.40100
C2102       C  0.09920537  0.56982776  0.59251788     0.36700
C2103       C  0.95766798  0.47599251  0.60255274     0.36400
C2104       C  0.03398677  0.44578333  0.54989614     0.37200
N2105       N  0.03752742  0.41933670  0.65037305    -0.43600
N2106       N  0.11089652  0.59502637  0.58263806    -0.44100
N2107       N  0.04940526  0.43883421  0.53935805    -0.41400
N2108       N  0.94130278  0.48083269  0.61326823    -0.42900
H2109       H  0.91789407  0.44044994  0.57632504     0.13300
H2110       H  0.07440010  0.48280412  0.57597128     0.09800
H2111       H  0.01004537  0.43366502  0.61427446     0.10900
H2112       H  0.13714647  0.58349173  0.61966889     0.16700
C2113       C  0.90350832  0.25504956  0.51586874    -0.01500
C2114       C  0.89250567  0.22421753  0.52771636     0.07100
C2115       C  0.88084175  0.23237918  0.54214661    -0.07500
C2116       C  0.88145169  0.27147508  0.54511323     0.04500
C2117       C  0.89412364  0.30329226  0.53347167    -0.14700
C2118       C  0.90413325  0.29430420  0.51881389    -0.08100
C2119       C  0.89385601  0.18349406  0.52564456     0.05400
C2120       C  0.92924097  0.18125621  0.53173155    -0.09200
C2121       C  0.92944031  0.14180344  0.53184650     0.00400
C2122       C  0.89369784  0.10364168  0.52554532     0.00300
C2123       C  0.85891441  0.10658017  0.51902133    -0.12700
C2124       C  0.85853605  0.14593745  0.51920824     0.00700
C2125       C  0.96661636  0.14171598  0.53862307     0.40100
C2126       C  0.82063330  0.14661995  0.51350988     0.36700
C2127       C  0.91550441  0.24764162  0.50082226     0.36400
C2128       C  0.86890780  0.27806073  0.56018336     0.37200
N2129       N  0.99628582  0.14175795  0.54419654    -0.43600
N2130       N  0.79020294  0.14730886  0.50907955    -0.44100
N2131       N  0.85884181  0.28305824  0.57229941    -0.41400
N2132       N  0.92510262  0.24174572  0.48875053    -0.42900
H2133       H  0.91403514  0.31868137  0.50983858    -0.01700
H2134       H  0.87176999  0.20826015  0.55117832     0.09800
H2135       H  0.95625712  0.21025778  0.53680170     0.10900
H2136       H  0.83112194  0.07767990  0.51425382     0.16700
C2137       C  0.81572699  0.56962253  0.52273800    -0.01500
C2138       C  0.85677947  0.60725332  0.52508196     0.07100
C2139       C  0.89407326  0.60327005  0.52611379    -0.07500
C2140       C  0.89120484  0.56261514  0.52414257     0.04500
C2141       C  0.85020515  0.52499840  0.52126177    -0.14700
C2142       C  0.81271623  0.52893054  0.52087531    -0.08100
C2143       C  0.86190364  0.65141824  0.52532394     0.05400
C2144       C  0.87066077  0.67421965  0.53922121    -0.09200
C2145       C  0.87565111  0.71612461  0.53977697     0.00400
C2146       C  0.87211994  0.73591808  0.52614314     0.00300
C2147       C  0.86337527  0.71267897  0.51229594    -0.12700
C2148       C  0.85860777  0.67107149  0.51175100     0.00700
C2149       C  0.88285767  0.73719321  0.55453833     0.40100
C2150       C  0.85155585  0.64971132  0.49704833     0.36700
C2151       C  0.77641136  0.57216640  0.52190174     0.36400
C2152       C  0.93111564  0.56096862  0.52407649     0.37200
N2153       N  0.88865985  0.75430751  0.56632246    -0.43600
N2154       N  0.84613653  0.63288970  0.48522423    -0.44100
N2155       N  0.96299062  0.55945809  0.52402091    -0.41400
N2156       N  0.74482848  0.57409791  0.52122568    -0.42900
H2157       H  0.78113162  0.50026004  0.51871216     0.13300
H2158       H  0.92570479  0.63230163  0.52781718     0.09800
H2159       H  0.87316313  0.65901366  0.54967071     0.10900
H2160       H  0.86085784  0.72730848  0.50176769     0.16700
C2161       C  0.75183671  0.34277517  0.46878551    -0.01500
C2162       C  0.75572100  0.36907658  0.45606432     0.07100
C2163       C  0.78676494  0.41373642  0.45637635    -0.07500
C2164       C  0.81269753  0.43284083  0.46934775     0.04500
C2165       C  0.80718378  0.40710775  0.48249844    -0.14700
C2166       C  0.77758381  0.36187712  0.48184698    -0.08100
C2167       C  0.72596423  0.35164822  0.44268544     0.05400
C2168       C  0.69371243  0.36317327  0.44097202    -0.09200
C2169       C  0.66611303  0.34955984  0.42817174     0.00400
C2170       C  0.67043267  0.32352689  0.41672997     0.00300
C2171       C  0.70256075  0.31157286  0.41863843    -0.12700
C2172       C  0.73048809  0.32577836  0.43138652     0.00700
C2173       C  0.63331669  0.36230993  0.42731818     0.40100
C2174       C  0.76477751  0.31513896  0.43233295     0.36700
C2175       C  0.72006424  0.29667302  0.46901762     0.36400
C2176       C  0.84455224  0.47895200  0.46885202     0.37200
N2177       N  0.60722911  0.37279363  0.42669779    -0.43600
N2178       N  0.79251469  0.30696937  0.43308825    -0.44100
N2179       N  0.86984602  0.51596180  0.46854737    -0.41400
N2180       N  0.69458939  0.25971526  0.46927076    -0.42900
H2181       H  0.77298971  0.34175634  0.49183354     0.13300
H2182       H  0.79016750  0.43388426  0.44651324     0.09800
H2183       H  0.69030997  0.38319860  0.44967132     0.10900
H2184       H  0.70676471  0.29211269  0.40992606     0.16700
C2185       C  0.51593543  0.48104842  0.85501924    -0.01500
C2186       C  0.54884391  0.51936421  0.86197189     0.07100
C2187       C  0.58694625  0.52083212  0.86715660    -0.07500
C2188       C  0.59217271  0.48422891  0.86592560     0.04500
C2189       C  0.55846103  0.44487222  0.85950463    -0.14700
C2190       C  0.52085261  0.44422724  0.85385917    -0.08100
C2191       C  0.54433424  0.55844246  0.86403591     0.05400
C2192       C  0.52503615  0.56261603  0.87750445    -0.09200
C2193       C  0.52442419  0.60120969  0.88058189     0.00400
C2194       C  0.54271498  0.63581966  0.86993392     0.00300
C2195       C  0.56004943  0.63071945  0.85615932    -0.12700
C2196       C  0.56146956  0.59261236  0.85322555     0.00700
C2197       C  0.50587487  0.60518052  0.89481018     0.40100
C2198       C  0.58252101  0.59017514  0.83940803     0.36700
C2199       C  0.47697180  0.47896400  0.84900659     0.36400
C2200       C  0.63291987  0.48865364  0.87102616     0.37200
N2201       N  0.49118041  0.60873090  0.90619668    -0.43600
N2202       N  0.59970434  0.58860178  0.82835039    -0.44100
N2203       N  0.66582516  0.49275648  0.87511404    -0.41400
N2204       N  0.44591634  0.47755639  0.84413052    -0.42900
H2205       H  0.49468794  0.41457520  0.84881373     0.13300
H2206       H  0.61267055  0.55075316  0.87223029     0.09800
H2207       H  0.51178686  0.53628251  0.88582192     0.10900
H2208       H  0.57464439  0.65756477  0.84804940     0.16700
C2209       C  0.71210809  0.79878793  0.94953263    -0.01500
C2210       C  0.71029086  0.82696260  0.93850069     0.07100
C2211       C  0.73583618  0.87225678  0.94059805    -0.07500
C2212       C  0.76387889  0.88983441  0.95324855     0.04500
C2213       C  0.76638262  0.86166309  0.96426778    -0.14700
C2214       C  0.73998982  0.81619139  0.96220168    -0.08100
C2215       C  0.68233451  0.80982238  0.92460646     0.05400
C2216       C  0.64512560  0.81401653  0.92333248    -0.09200
C2217       C  0.61674862  0.79623546  0.91076997     0.00400
C2218       C  0.62547377  0.77370636  0.89918781     0.00300
C2219       C  0.66382480  0.77126240  0.90019931    -0.12700
C2220       C  0.69222427  0.78921016  0.91270403     0.00700
C2221       C  0.57787858  0.79970689  0.91042826     0.40100
C2222       C  0.73147049  0.78635880  0.91304089     0.36700
C2223       C  0.68506717  0.75188898  0.94824965     0.36400
C2224       C  0.79097294  0.93680007  0.95412812     0.37200
N2225       N  0.54677980  0.80259745  0.91006161    -0.43600
N2226       N  0.76299650  0.78421335  0.91327015    -0.44100
N2227       N  0.81265447  0.97446201  0.95472762    -0.41400
N2228       N  0.66340038  0.71429281  0.94728933    -0.42900
H2229       H  0.74079744  0.79398845  0.97059211     0.13300
H2230       H  0.73450598  0.89398166  0.93211771     0.09800
H2231       H  0.63767172  0.83027425  0.93238511     0.10900
H2232       H  0.67126433  0.75463690  0.89127537     0.16700
C2233       C  0.36046404  0.69902107  0.77205003    -0.01500
C2234       C  0.39017702  0.68510822  0.77589152     0.07100
C2235       C  0.39300263  0.65443174  0.76651524    -0.07500
C2236       C  0.36680648  0.63767802  0.75335929     0.04500
C2237       C  0.33633682  0.65111198  0.74956159    -0.14700
C2238       C  0.33394539  0.68204850  0.75906067    -0.08100
C2239       C  0.41873710  0.70295887  0.78960254     0.05400
C2240       C  0.40634913  0.67896905  0.80329351    -0.09200
C2241       C  0.42934131  0.69717468  0.81695651     0.00400
C2242       C  0.46564558  0.74015464  0.81701049     0.00300
C2243       C  0.47885352  0.76343582  0.80313930    -0.12700
C2244       C  0.45583687  0.74517432  0.78951007     0.00700
C2245       C  0.41328944  0.67220188  0.83092396     0.40100
C2246       C  0.47024071  0.77055397  0.77558207     0.36700
C2247       C  0.35640548  0.73051257  0.78139442     0.36400
C2248       C  0.37343607  0.60836100  0.74368471     0.37200
N2249       N  0.40041039  0.65226051  0.84213152    -0.43600
N2250       N  0.48166113  0.79072076  0.76437708    -0.44100
N2251       N  0.37888189  0.58505780  0.73587534    -0.41400
N2252       N  0.35326237  0.75577474  0.78890193    -0.42900
H2253       H  0.31097046  0.69289607  0.75643698     0.13300
H2254       H  0.41626833  0.64411493  0.76935580     0.09800
H2255       H  0.37761358  0.64661441  0.80341815     0.10900
H2256       H  0.50683259  0.79628422  0.80301561     0.16700
C2257       C  0.53541686  0.01791951  0.84402679    -0.01500
C2258       C  0.53709286  0.99643473  0.85736322     0.07100
C2259       C  0.54441729  0.01742570  0.87158196    -0.07500
C2260       C  0.54855696  0.05890415  0.87273650     0.04500
C2261       C  0.54518141  0.07993198  0.85940345    -0.14700
C2262       C  0.53905316  0.05901059  0.84514149    -0.08100
C2263       C  0.52974877  0.95140850  0.85663731     0.05400
C2264       C  0.56549058  0.94489045  0.85783611    -0.09200
C2265       C  0.56021290  0.90323066  0.85574057     0.00400
C2266       C  0.51828520  0.86707996  0.85276178     0.00300
C2267       C  0.48238527  0.87362344  0.85199766    -0.12700
C2268       C  0.48786112  0.91540127  0.85381115     0.00700
C2269       C  0.59868564  0.89900662  0.85556682     0.40100
C2270       C  0.45031232  0.92090429  0.85233488     0.36700
C2271       C  0.53064780  0.99865839  0.82903652     0.36400
C2272       C  0.55445658  0.07797979  0.88780405     0.37200
N2273       N  0.62938365  0.89540636  0.85531364    -0.43600
N2274       N  0.42042180  0.92560050  0.85105083    -0.44100
N2275       N  0.55922675  0.09309151  0.89991427    -0.41400
N2276       N  0.52711529  0.98339734  0.81701049    -0.42900
H2277       H  0.53740371  0.07492777  0.83474303     0.13300
H2278       H  0.54595780  0.00091245  0.88183586     0.09800
H2279       H  0.59780357  0.97271187  0.85978459     0.10900
H2280       H  0.45013343  0.84613870  0.84967083     0.16700
C2281       C  0.90891915  0.24583382  0.69261333    -0.01500
C2282       C  0.91604800  0.28335082  0.68450562     0.07100
C2283       C  0.88334396  0.28109644  0.67483738    -0.07500
C2284       C  0.84420575  0.24167629  0.67288583     0.04500
C2285       C  0.83768209  0.20400906  0.68070741    -0.14700
C2286       C  0.86977016  0.20649954  0.69068297    -0.08100
C2287       C  0.95807166  0.32476370  0.68555869     0.05400
C2288       C  0.99535852  0.32656669  0.67934208    -0.09200
C2289       C  0.03594878  0.36490121  0.68013834     0.00400
C2290       C  0.03972003  0.40238087  0.68752146     0.00300
C2291       C  0.00197485  0.40029506  0.69366131    -0.12700
C2292       C  0.96132687  0.36210690  0.69257309     0.00700
C2293       C  0.07275566  0.36447050  0.67320685     0.40100
C2294       C  0.92339902  0.36189616  0.69873344     0.36700
C2295       C  0.94140877  0.24686306  0.70286343     0.36400
C2296       C  0.81136350  0.24041360  0.66274525     0.37200
N2297       N  0.10200709  0.36408106  0.66747331    -0.43600
N2298       N  0.89286443  0.36166061  0.70355564    -0.44100
N2299       N  0.78496815  0.23945743  0.65467536    -0.41400
N2300       N  0.96741968  0.24756048  0.71106579    -0.42900
H2301       H  0.86464212  0.17737149  0.69663772     0.13300
H2302       H  0.88880391  0.30995344  0.66860880     0.09800
H2303       H  0.99258733  0.29786129  0.67375257     0.10900
H2304       H  0.00397235  0.42885402  0.69907971     0.16700
C2305       C  0.77260927  0.01127773  0.63791506    -0.01500
C2306       C  0.78538547  0.03152816  0.62341187     0.07100
C2307       C  0.78692048  0.07149508  0.62100849    -0.07500
C2308       C  0.77804455  0.09238847  0.63293099     0.04500
C2309       C  0.76693725  0.07306174  0.64763339    -0.14700
C2310       C  0.76336994  0.03204828  0.64985654    -0.08100
C2311       C  0.79902949  0.01287012  0.61069731     0.05400
C2312       C  0.76802238  0.97424130  0.60346242    -0.09200
C2313       C  0.77913369  0.95769191  0.59065926     0.00400
C2314       C  0.82259512  0.97996828  0.58487917     0.00300
C2315       C  0.85360774  0.01818412  0.59251543    -0.12700
C2316       C  0.84224088  0.03467146  0.60518361     0.00700
C2317       C  0.74458503  0.91866311  0.58358314     0.40100
C2318       C  0.87573797  0.07408508  0.61239719     0.36700
C2319       C  0.77087660  0.97037333  0.64104998     0.36400
C2320       C  0.78134173  0.13407525  0.62986854     0.37200
N2321       N  0.71660423  0.88744577  0.57798948    -0.43600
N2322       N  0.90267480  0.10570228  0.61813001    -0.44100
N2323       N  0.78431167  0.16765551  0.62749988    -0.41400
N2324       N  0.76941250  0.93758803  0.64366537    -0.42900
H2325       H  0.75534016  0.01718411  0.66113855     0.13300
H2326       H  0.79613594  0.08692793  0.60983261     0.09800
H2327       H  0.73466125  0.95754193  0.60761422     0.10900
H2328       H  0.88712124  0.03574657  0.58855695     0.16700
C2329       C  0.54404814  0.90071412  0.70245511    -0.01500
C2330       C  0.50689939  0.89398112  0.69419703     0.07100
C2331       C  0.50605314  0.92991495  0.68781233    -0.07500
C2332       C  0.54099535  0.97237731  0.68998115     0.04500
C2333       C  0.57748669  0.97918212  0.69862352    -0.14700
C2334       C  0.57908051  0.94322145  0.70456981    -0.08100
C2335       C  0.46687881  0.85050404  0.69338612     0.05400
C2336       C  0.44128925  0.83437087  0.70659417    -0.09200
C2337       C  0.40188804  0.79461877  0.70638822     0.00400
C2338       C  0.38776990  0.76951410  0.69269799     0.00300
C2339       C  0.41365373  0.78612099  0.67944350    -0.12700
C2340       C  0.45261715  0.82642429  0.67965289     0.00700
C2341       C  0.37724414  0.78078348  0.72049349     0.40100
C2342       C  0.47739501  0.84232644  0.66565920     0.36700
C2343       C  0.54701701  0.86461779  0.70881010     0.36400
C2344       C  0.53868646  0.00856063  0.68336041     0.37200
N2345       N  0.35748809  0.77007859  0.73179307    -0.43600
N2346       N  0.49698274  0.85491233  0.65437810    -0.44100
N2347       N  0.53695474  0.03763181  0.67805639    -0.41400
N2348       N  0.54987607  0.83593805  0.71389069    -0.42900
H2349       H  0.60744843  0.94847807  0.71105154     0.13300
H2350       H  0.47749894  0.92482345  0.68149461     0.09800
H2351       H  0.45195621  0.85337714  0.71709493     0.10900
H2352       H  0.40324768  0.76784278  0.66879754     0.16700
C2353       C  0.59258105  0.14122469  0.78107198    -0.01500
C2354       C  0.62338800  0.17086321  0.77055278     0.07100
C2355       C  0.64464844  0.21573691  0.77381257    -0.07500
C2356       C  0.63571212  0.23129876  0.78737878     0.04500
C2357       C  0.60576740  0.20145225  0.79824636    -0.14700
C2358       C  0.58432258  0.15652136  0.79476760    -0.08100
C2359       C  0.63227144  0.15536472  0.75585065     0.05400
C2360       C  0.60349696  0.14600344  0.74350158    -0.09200
C2361       C  0.60811280  0.12723567  0.72996423     0.00400
C2362       C  0.64208467  0.11754340  0.72862288     0.00300
C2363       C  0.67200928  0.12875542  0.74072499    -0.12700
C2364       C  0.66722807  0.14726496  0.75429998     0.00700
C2365       C  0.57771997  0.11828304  0.71758150     0.40100
C2366       C  0.69739760  0.15575729  0.76671606     0.36700
C2367       C  0.56868787  0.09486131  0.77798172     0.36400
C2368       C  0.65561893  0.27802307  0.78928784     0.37200
N2369       N  0.55346753  0.11120235  0.70762325    -0.43600
N2370       N  0.72169260  0.16226251  0.77660857    -0.44100
N2371       N  0.67126164  0.31547506  0.79068330    -0.41400
N2372       N  0.54929335  0.05770288  0.77550365    -0.42900
H2373       H  0.56090935  0.13304928  0.80278554     0.13300
H2374       H  0.66753341  0.23871655  0.76555335     0.09800
H2375       H  0.57677432  0.15248182  0.74459184     0.10900
H2376       H  0.69808571  0.12125725  0.73982234     0.16700
loop_ 
_geom_bond_atom_site_label_1 
_geom_bond_atom_site_label_2 
_geom_bond_distance 
_geom_bond_site_symmetry_2 
_ccdc_geom_bond_type 
C1            C2   1.398       .  A
C1            C6   1.406       .  A
C1         C2362   1.489       .  S
C2            C3   1.396       .  A
C2            H7   1.084       .  S
C3            C4   1.398       .  A
C3         C2333   1.474   1_545  S
C4            C5   1.413       .  A
C4            H8   1.078       .  S
C5            C6   1.423       .  A
C5           C14   1.516       .  S
C6            H9   1.077       .  S
C10          C11   1.395       .  A
C10          C15   1.408       .  A
C10        C2309   1.488       .  S
C11          C12   1.390       .  A
C11          H16   1.085       .  S
C12          C13   1.397       .  A
C12        C2285   1.468       .  S
C13          C14   1.414       .  A
C13          H17   1.078       .  S
C14          C15   1.425       .  A
C15          H18   1.077       .  S
C19          C20   1.400       .  A
C19          C24   1.404       .  A
C19        C2242   1.490       .  S
C20          C21   1.401       .  A
C20          H25   1.084       .  S
C21          C22   1.404       .  A
C21        C2266   1.485       .  S
C22          C23   1.411       .  A
C22          H26   1.081       .  S
C23          C24   1.417       .  A
C23          C32   1.506       .  S
C24          H27   1.080       .  S
C28          C29   1.399       .  A
C28          C33   1.409       .  A
C28        C2218   1.491       .  S
C29          C30   1.395       .  A
C29          H34   1.084       .  S
C30          C31   1.398       .  A
C30        C2194   1.475       .  S
C31          C32   1.412       .  A
C31          H35   1.080       .  S
C32          C33   1.419       .  A
C33          H36   1.080       .  S
C37          C38   1.400       .  A
C37          C42   1.406       .  A
C37        C2165   1.489       .  S
C38          C39   1.396       .  A
C38          H43   1.083       .  S
C39          C40   1.400       .  A
C39        C2141   1.483       .  S
C40          C41   1.412       .  A
C40          H44   1.080       .  S
C41          C42   1.415       .  A
C41          C50   1.503       .  S
C42          H45   1.081       .  S
C46          C47   1.395       .  A
C46          C51   1.400       .  A
C46        C2093   1.477       .  S
C47          C48   1.398       .  A
C47          H52   1.084       .  S
C48          C49   1.403       .  A
C48        C2117   1.479       .  S
C49          C50   1.413       .  A
C49          H53   1.081       .  S
C50          C51   1.414       .  A
C51          H54   1.080       .  S
C55          C56   1.398   1_556  A
C55          C60   1.402   1_556  A
C55        C2045   1.485       .  S
C56          C57   1.396       .  A
C56          H61   1.084   1_554  S
C57          C58   1.399       .  A
C57        C2074   1.471       .  S
C58          C59   1.410       .  A
C58          H62   1.080       .  S
C59          C60   1.415       .  A
C59          C66   1.500       .  S
C60          H63   1.080       .  S
C64          C65   1.404       .  A
C64          C69   1.396       .  A
C64        C2021   1.483       .  S
C65          C66   1.416       .  A
C65          H70   1.080       .  S
C66          C67   1.410       .  A
C67          C68   1.397       .  A
C67          H71   1.081       .  S
C68          C69   1.398       .  A
C68        C2002   1.477       .  S
C69          H72   1.084       .  S
C73          C74   1.403   1_655  A
C73          C78   1.396       .  A
C73        C1949   1.483       .  S
C74          C75   1.417       .  A
C74          H79   1.079       .  S
C75          C76   1.413   1_455  A
C75          C86   1.508       .  S
C76          C77   1.403       .  A
C76          H80   1.079       .  S
C77          C78   1.398       .  A
C77        C1973   1.484       .  S
C78          H81   1.084       .  S
C82          C83   1.399       .  A
C82          C87   1.405       .  A
C82        C1925   1.484       .  S
C83          C84   1.395       .  A
C83          H88   1.084       .  S
C84          C85   1.399       .  A
C84        C1901   1.476       .  S
C85          C86   1.413       .  A
C85          H89   1.079       .  S
C86          C87   1.418       .  A
C87          H90   1.079       .  S
C91          C92   1.402       .  A
C91          C96   1.405       .  A
C91        C1853   1.486       .  S
C92          C93   1.399       .  A
C92          H97   1.084       .  S
C93          C94   1.401       .  A
C93        C1877   1.480       .  S
C94          C95   1.411       .  A
C94          H98   1.080       .  S
C95          C96   1.415       .  A
C95         C104   1.504       .  S
C96          H99   1.081       .  S
C100        C101   1.401       .  A
C100        C105   1.405       .  A
C100       C1805   1.491       .  S
C101        C102   1.401       .  A
C101        H106   1.084       .  S
C102        C103   1.403       .  A
C102       C1834   1.489   1_545  S
C103        C104   1.412       .  A
C103        H107   1.081       .  S
C104        C105   1.416       .  A
C105        H108   1.080       .  S
C109        C110   1.394       .  A
C109        C114   1.404       .  A
C109       C1786   1.481       .  S
C110        C111   1.396   1_455  A
C110        H115   1.085       .  S
C111        C112   1.404   1_655  A
C111       C1757   1.481       .  S
C112        C113   1.415       .  A
C112        H116   1.079   1_455  S
C113        C114   1.421       .  A
C113        C122   1.511       .  S
C114        H117   1.080       .  S
C118        C119   1.399       .  A
C118        C123   1.408       .  A
C118       C1733   1.486       .  S
C119        C120   1.397       .  A
C119        H124   1.084       .  S
C120        C121   1.398       .  A
C120       C1709   1.473       .  S
C121        C122   1.411       .  A
C121        H125   1.080       .  S
C122        C123   1.419       .  A
C123        H126   1.080       .  S
C127        C128   1.406       .  A
C127        C132   1.402       .  A
C127       C1685   1.489       .  S
C128        C129   1.414       .  A
C128        H133   1.081       .  S
C129        C130   1.414       .  A
C129        C138   1.504       .  S
C130        C131   1.402       .  A
C130        H134   1.081       .  S
C131        C132   1.400       .  A
C131       C1666   1.485       .  S
C132        H135   1.084       .  S
C136        C137   1.403       .  A
C136        C141   1.400       .  A
C136       C1613   1.485       .  S
C137        C138   1.414       .  A
C137        H142   1.081       .  S
C138        C139   1.415       .  A
C139        C140   1.404       .  A
C139        H143   1.081       .  S
C140        C141   1.397       .  A
C140       C1637   1.483       .  S
C141        H144   1.084       .  S
C145        C146   1.399       .  A
C145        C150   1.404       .  A
C145       C1594   1.485       .  S
C146        C147   1.400       .  A
C146        H151   1.084       .  S
C147        C148   1.403       .  A
C147       C1565   1.483       .  S
C148        C149   1.411       .  A
C148        H152   1.081       .  S
C149        C150   1.416       .  A
C149        C156   1.505       .  S
C150        H153   1.080       .  S
C154        C155   1.407       .  A
C154        C159   1.397       .  A
C154       C1517   1.487       .  S
C155        C156   1.419       .  A
C155        H160   1.081       .  S
C156        C157   1.412       .  A
C157        C158   1.399       .  A
C157        H161   1.080       .  S
C158        C159   1.395       .  A
C158       C1541   1.476       .  S
C159        H162   1.084       .  S
C163        C164   1.399       .  A
C163        C168   1.403       .  A
C163       C1469   1.491   1_564  S
C164        C165   1.399       .  A
C164        H169   1.084   1_564  S
C165        C166   1.405       .  A
C165       C1493   1.487       .  S
C166        C167   1.416       .  A
C166        H170   1.080       .  S
C167        C168   1.417       .  A
C167        C174   1.508       .  S
C168        H171   1.080       .  S
C172        C173   1.407       .  A
C172        C177   1.401       .  A
C172       C1450   1.487       .  S
C173        C174   1.416       .  A
C173        H178   1.080       .  S
C174        C175   1.413       .  A
C175        C176   1.401       .  A
C175        H179   1.080       .  S
C176        C177   1.399       .  A
C176       C1426   1.484       .  S
C177        H180   1.084       .  S
C181        C182   1.401       .  A
C181        C186   1.412       .  A
C181       C1373   1.492       .  S
C182        C183   1.399       .  A
C182        H187   1.084       .  S
C183        C184   1.399       .  A
C183       C1397   1.482       .  S
C184        C185   1.411       .  A
C184        H188   1.081       .  S
C185        C186   1.419       .  A
C185        C194   1.508       .  S
C186        H189   1.081       .  S
C190        C191   1.400       .  A
C190        C195   1.403       .  A
C190       C1349   1.492       .  S
C191        C192   1.407   1_455  A
C191        H196   1.084   1_455  S
C192        C193   1.410       .  A
C192       C1330   1.498       .  S
C193        C194   1.413   1_655  A
C193        H197   1.081       .  S
C194        C195   1.416       .  A
C195        H198   1.080       .  S
C199        C200   1.395       .  A
C199        C204   1.406       .  A
C199       C1277   1.484       .  S
C200        C201   1.395       .  A
C200        H205   1.085       .  S
C201        C202   1.402       .  A
C201       C1301   1.477       .  S
C202        C203   1.413       .  A
C202        H206   1.081       .  S
C203        C204   1.420       .  A
C203        C212   1.508       .  S
C204        H207   1.080       .  S
C208        C209   1.398   1_545  A
C208        C213   1.408       .  A
C208       C1229   1.492       .  S
C209        C210   1.397       .  A
C209        H214   1.084       .  S
C210        C211   1.401   1_565  A
C210       C1253   1.482       .  S
C211        C212   1.413       .  A
C211        H215   1.080       .  S
C212        C213   1.420       .  A
C213        H216   1.080       .  S
C217        C218   1.408       .  A
C217        C222   1.397       .  A
C217       C1205   1.484       .  S
C218        C219   1.418       .  A
C218        H223   1.081       .  S
C219        C220   1.411       .  A
C219        C228   1.505       .  S
C220        C221   1.396       .  A
C220        H224   1.080       .  S
C221        C222   1.393       .  A
C221       C1186   1.472       .  S
C222        H225   1.085       .  S
C226        C227   1.400       .  A
C226        C231   1.397       .  A
C226       C1162   1.484       .  S
C227        C228   1.416       .  A
C227        H232   1.080       .  S
C228        C229   1.412       .  A
C229        C230   1.405       .  A
C229        H233   1.080       .  S
C230        C231   1.402       .  A
C230       C1138   1.487       .  S
C231        H234   1.084       .  S
C235        C236   1.402       .  A
C235        C240   1.408       .  A
C235       C1109   1.490       .  S
C236        C237   1.401       .  A
C236        H241   1.084       .  S
C237        C238   1.398       .  A
C237       C1085   1.482       .  S
C238        C239   1.410       .  A
C238        H242   1.079       .  S
C239        C240   1.419       .  A
C239        C248   1.510       .  S
C240        H243   1.080       .  S
C244        C245   1.399   1_545  A
C244        C249   1.404       .  A
C244       C1066   1.493       .  S
C245        C246   1.401       .  A
C245        H250   1.084       .  S
C246        C247   1.402   1_565  A
C246       C1037   1.483       .  S
C247        C248   1.413       .  A
C247        H251   1.080       .  S
C248        C249   1.421       .  A
C249        H252   1.079       .  S
C253        C254   1.399       .  A
C253        C258   1.410       .  A
C253        C994   1.496   1_565  S
C254        C255   1.398       .  A
C254        H259   1.084       .  S
C255        C256   1.405       .  A
C255       C1018   1.487       .  S
C256        C257   1.417       .  A
C256        H260   1.078       .  S
C257        C258   1.425       .  A
C257        C264   1.523       .  S
C258        H261   1.078       .  S
C262        C263   1.411       .  A
C262        C267   1.395       .  A
C262        C946   1.493       .  S
C263        C264   1.426       .  A
C263        H268   1.078       .  S
C264        C265   1.418       .  A
C265        C266   1.403       .  A
C265        H269   1.078       .  S
C266        C267   1.397       .  A
C266        C965   1.483       .  S
C267        H270   1.085       .  S
C271        C272   1.405       .  A
C271        C276   1.403       .  A
C271        C898   1.492       .  S
C272        C273   1.414       .  A
C272        H277   1.081       .  S
C273        C274   1.413       .  A
C273        C284   1.505       .  S
C274        C275   1.405       .  A
C274        H278   1.081       .  S
C275        C276   1.401       .  A
C275        C922   1.487       .  S
C276        H279   1.084       .  S
C280        C281   1.398       .  A
C280        C285   1.406       .  A
C280        C874   1.483       .  S
C281        C282   1.398       .  A
C281        H286   1.084       .  S
C282        C283   1.400       .  A
C282        C845   1.479       .  S
C283        C284   1.414       .  A
C283        H287   1.081       .  S
C284        C285   1.417       .  A
C285        H288   1.081       .  S
C289        C290   1.403   1_556  A
C289        C294   1.397       .  A
C289        C821   1.485       .  S
C290        C291   1.417       .  A
C290        H295   1.079       .  S
C291        C292   1.415       .  A
C291        C302   1.508       .  S
C292        C293   1.400       .  A
C292        H296   1.079       .  S
C293        C294   1.397   1_554  A
C293        C802   1.480       .  S
C294        H297   1.084       .  S
C298        C299   1.396       .  A
C298        C303   1.403       .  A
C298        C749   1.478       .  S
C299        C300   1.394       .  A
C299        H304   1.084       .  S
C300        C301   1.399       .  A
C300        C773   1.471       .  S
C301        C302   1.414       .  A
C301        H305   1.079       .  S
C302        C303   1.417       .  A
C303        H306   1.079       .  S
C307        C308   1.398       .  A
C307        C312   1.398       .  A
C307        C706   1.474       .  S
C308        C309   1.408       .  A
C308        H313   1.081       .  S
C309        C310   1.414       .  A
C309        C320   1.497       .  S
C310        C311   1.403       .  A
C310        H314   1.081       .  S
C311        C312   1.398       .  A
C311        C730   1.483       .  S
C312        H315   1.084       .  S
C316        C317   1.400       .  A
C316        C321   1.398   1_655  A
C316        C658   1.478       .  S
C317        C318   1.400       .  A
C317        H322   1.083       .  S
C318        C319   1.405   1_655  A
C318        C677   1.488       .  S
C319        C320   1.414       .  A
C319        H323   1.081       .  S
C320        C321   1.408       .  A
C321        H324   1.081       .  S
O325        C336   1.293       .  A
O325       Eu361   2.467       .  S
O326        C337   1.291       .  A
O326       Eu360   2.461       .  S
O327        C338   1.291       .  A
O327       Eu333   2.457       .  S
O328        C339   1.293       .  A
O328       Eu333   2.469       .  S
O329        C339   1.288       .  A
O329       Eu363   2.445       .  S
O330        C338   1.292       .  A
O330       Eu362   2.457       .  S
O331        C337   1.290       .  A
O331       Eu333   2.442       .  S
O332        C336   1.293       .  A
O332       Eu333   2.468       .  S
Eu333       O343   2.351       .  S
Eu333       O335   2.348       .  S
Eu333       O334   2.344       .  S
Eu333       O341   2.362       .  S
O334       Eu363   2.341       .  S
O334       Eu360   2.350       .  S
O335       Eu361   2.344       .  S
O335       Eu362   2.342       .  S
C336       C2357   1.496       .  S
C337       C1762   1.493       .  S
C338       C1618   1.487       .  S
C339        C682   1.495       .  S
H340        O341   0.966       .  S
O341       Eu362   2.359       .  S
O341       Eu360   2.357       .  S
H342        O343   0.966       .  S
O343       Eu361   2.359       .  S
O343       Eu363   2.356       .  S
O344        C367   1.291       .  A
O344       Eu360   2.460       .  S
O345        C368   1.292       .  A
O345       Eu361   2.456       .  S
O346        C369   1.291       .  A
O346       Eu362   2.455       .  S
O347        C370   1.290       .  A
O347       Eu363   2.449       .  S
O348        C371   1.291       .  A
O348       Eu363   2.462       .  S
O349        C372   1.294       .  A
O349       Eu362   2.478       .  S
O350        C373   1.293       .  A
O350       Eu364   2.469       .  S
O351        C374   1.296       .  A
O351       Eu364   2.484       .  S
O352        C373   1.289       .  A
O352       Eu362   2.448       .  S
O353        C374   1.286       .  A
O353       Eu363   2.437       .  S
O354        C369   1.293       .  A
O354       Eu360   2.471       .  S
O355        C372   1.291       .  A
O355       Eu361   2.461       .  S
O356        C371   1.291       .  A
O356       Eu361   2.448       .  S
O357        C370   1.293       .  A
O357       Eu360   2.470       .  S
O358        C367   1.292       .  A
O358       Eu364   2.460       .  S
O359        C368   1.291       .  A
O359       Eu364   2.455       .  S
Eu360       O378   2.355       .  S
Eu360       O366   2.349       .  S
Eu361       O365   2.356       .  S
Eu361       O376   2.351       .  S
Eu362       O376   2.354       .  S
Eu362       O366   2.352       .  S
Eu363       O365   2.348       .  S
Eu363       O378   2.358       .  S
Eu364       O365   2.354       .  S
Eu364       O376   2.363       .  S
Eu364       O378   2.348       .  S
Eu364       O366   2.353       .  S
C367       C2050   1.485       .  S
C368       C1714   1.484       .  S
C369       C2189   1.491       .  S
C370        C826   1.485       .  S
C371       C2261   1.487       .  S
C372       C1114   1.488       .  S
C373        C725   1.492       .  S
C374       C1474   1.495       .  S
H375        O376   0.966       .  S
H377        O378   0.966       .  S
O379        C390   1.293       .  A
O379       Eu415   2.468   1_556  S
O380        C391   1.290       .  A
O380       Eu414   2.450       .  S
O381        C392   1.290       .  A
O381       Eu387   2.456       .  S
O382        C393   1.291       .  A
O382       Eu387   2.457   1_546  S
O383        C393   1.291       .  A
O383       Eu417   2.458   1_546  S
O384        C392   1.292       .  A
O384       Eu416   2.455       .  S
O385        C391   1.291       .  A
O385       Eu387   2.457   1_545  S
O386        C390   1.291       .  A
O386       Eu387   2.461   1_556  S
Eu387       O397   2.351   1_554  S
Eu387       O389   2.347       .  S
Eu387       O388   2.353   1_565  S
Eu387       O395   2.354       .  S
O388       Eu417   2.352   1_545  S
O388       Eu414   2.355       .  S
O389       Eu415   2.348       .  S
O389       Eu416   2.351       .  S
C390       C2213   1.494       .  S
C391        C797   1.475       .  S
C392       C1421   1.491       .  S
C393        C653   1.485       .  S
H394        O395   0.967       .  S
O395       Eu416   2.352       .  S
O395       Eu414   2.352   1_565  S
H396        O397   0.967       .  S
O397       Eu415   2.346   1_556  S
O397       Eu417   2.352   1_556  S
O398        C421   1.291   1_545  A
O398       Eu414   2.457       .  S
O399        C422   1.291       .  A
O399       Eu415   2.454       .  S
O400        C423   1.290       .  A
O400       Eu416   2.452       .  S
O401        C424   1.289       .  A
O401       Eu417   2.445   1_445  S
O402        C425   1.289       .  A
O402       Eu417   2.448   1_556  S
O403        C426   1.289       .  A
O403       Eu416   2.442       .  S
O404        C427   1.291       .  A
O404       Eu418   2.451       .  S
O405        C428   1.292   1_655  A
O405       Eu418   2.461       .  S
O406        C427   1.293       .  A
O406       Eu416   2.470       .  S
O407        C428   1.291       .  A
O407       Eu417   2.454   1_455  S
O408        C423   1.293   1_545  A
O408       Eu414   2.473       .  S
O409        C426   1.290       .  A
O409       Eu415   2.451       .  S
O410        C425   1.294       .  A
O410       Eu415   2.473   1_556  S
O411        C424   1.291   1_655  A
O411       Eu414   2.454       .  S
O412        C421   1.293       .  A
O412       Eu418   2.469       .  S
O413        C422   1.292       .  A
O413       Eu418   2.461       .  S
Eu414       O432   2.359   1_545  S
Eu414       O420   2.346   1_545  S
Eu415       O419   2.351       .  S
Eu415       O430   2.362       .  S
Eu416       O430   2.350       .  S
Eu416       O420   2.344       .  S
Eu417       O419   2.347       .  S
Eu417       O432   2.355       .  S
Eu418       O419   2.355       .  S
Eu418       O430   2.352       .  S
Eu418       O432   2.350       .  S
Eu418       O420   2.351       .  S
C421       C1858   1.488   1_655  S
C422        C778   1.482       .  S
C423       C1234   1.487       .  S
C424       C1997   1.478       .  S
C425       C1738   1.488       .  S
C426       C2069   1.477       .  S
C427        C869   1.488       .  S
C428       C1498   1.485       .  S
H429        O430   0.967       .  S
H431        O432   0.966       .  S
O433        C444   1.292       .  A
O433       Eu469   2.465       .  S
O434        C445   1.293       .  A
O434       Eu468   2.471       .  S
O435        C446   1.292       .  A
O435       Eu441   2.459       .  S
O436        C447   1.291       .  A
O436       Eu441   2.460       .  S
O437        C447   1.293       .  A
O437       Eu471   2.468       .  S
O438        C446   1.294       .  A
O438       Eu470   2.479       .  S
O439        C445   1.291       .  A
O439       Eu441   2.450       .  S
O440        C444   1.292       .  A
O440       Eu441   2.460       .  S
Eu441       O451   2.356       .  S
Eu441       O443   2.354       .  S
Eu441       O442   2.353       .  S
Eu441       O449   2.357       .  S
O442       Eu471   2.353       .  S
O442       Eu468   2.350       .  S
O443       Eu469   2.351       .  S
O443       Eu470   2.352       .  S
C444       C2170   1.490       .  S
C445       C1133   1.491       .  S
C446        C989   1.503       .  S
C447       C1325   1.489       .  S
H448        O449   0.964       .  S
O449       Eu470   2.353       .  S
O449       Eu468   2.356       .  S
H450        O451   0.964       .  S
O451       Eu469   2.359       .  S
O451       Eu471   2.357       .  S
O452        C475   1.290       .  A
O452       Eu468   2.453       .  S
O453        C476   1.291       .  A
O453       Eu469   2.460       .  S
O454        C477   1.294       .  A
O454       Eu470   2.471       .  S
O455        C478   1.291       .  A
O455       Eu471   2.459       .  S
O456        C479   1.292       .  A
O456       Eu471   2.461       .  S
O457        C480   1.293       .  A
O457       Eu470   2.464       .  S
O458        C481   1.293       .  A
O458       Eu472   2.467       .  S
O459        C482   1.292       .  A
O459       Eu472   2.461       .  S
O460        C481   1.290       .  A
O460       Eu470   2.453       .  S
O461        C482   1.292       .  A
O461       Eu471   2.460       .  S
O462        C477   1.289       .  A
O462       Eu468   2.449       .  S
O463        C480   1.292       .  A
O463       Eu469   2.465       .  S
O464        C479   1.290       .  A
O464       Eu469   2.453       .  S
O465        C478   1.292       .  A
O465       Eu468   2.457       .  S
O466        C475   1.296       .  A
O466       Eu472   2.483       .  S
O467        C476   1.292       .  A
O467       Eu472   2.462       .  S
Eu468       O486   2.355       .  S
Eu468       O474   2.347       .  S
Eu469       O473   2.347       .  S
Eu469       O484   2.357       .  S
Eu470       O484   2.360       .  S
Eu470       O474   2.351       .  S
Eu471       O473   2.348       .  S
Eu471       O486   2.360       .  S
Eu472       O473   2.351       .  S
Eu472       O484   2.360       .  S
Eu472       O486   2.355       .  S
Eu472       O474   2.345       .  S
C475       C1810   1.499       .  S
C476       C1181   1.478       .  S
C477       C1906   1.499       .  S
C478       C1282   1.490       .  S
C479       C1978   1.488       .  S
C480       C1589   1.496       .  S
C481       C1402   1.486       .  S
C482        C893   1.493       .  S
H483        O484   0.964       .  S
H485        O486   0.964       .  S
O487        C498   1.293       .  A
O487       Eu523   2.464       .  S
O488        C499   1.293       .  A
O488       Eu522   2.471       .  S
O489        C500   1.290       .  A
O489       Eu495   2.447       .  S
O490        C501   1.292       .  A
O490       Eu495   2.460       .  S
O491        C501   1.293       .  A
O491       Eu525   2.468       .  S
O492        C500   1.293       .  A
O492       Eu524   2.468       .  S
O493        C499   1.292       .  A
O493       Eu495   2.457       .  S
O494        C498   1.288       .  A
O494       Eu495   2.444       .  S
Eu495       O505   2.359       .  S
Eu495       O497   2.352       .  S
Eu495       O496   2.342       .  S
Eu495       O503   2.360       .  S
O496       Eu525   2.350       .  S
O496       Eu522   2.349       .  S
O497       Eu523   2.353       .  S
O497       Eu524   2.353       .  S
C498       C2338   1.489       .  S
C499       C1781   1.497       .  S
C500       C1042   1.486       .  S
C501       C2237   1.495       .  S
H502        O503   0.966       .  S
O503       Eu524   2.361       .  S
O503       Eu522   2.352       .  S
H504        O505   0.966       .  S
O505       Eu523   2.353       .  S
O505       Eu525   2.355       .  S
O506        C529   1.291       .  A
O506       Eu522   2.452       .  S
O507        C530   1.290       .  A
O507       Eu523   2.447       .  S
O508        C531   1.293       .  A
O508       Eu524   2.472       .  S
O509        C532   1.292       .  A
O509       Eu525   2.460       .  S
O510        C533   1.292       .  A
O510       Eu525   2.464       .  S
O511        C534   1.294       .  A
O511       Eu524   2.469       .  S
O512        C535   1.291       .  A
O512       Eu526   2.460       .  S
O513        C536   1.293       .  A
O513       Eu526   2.466       .  S
O514        C535   1.291       .  A
O514       Eu524   2.456       .  S
O515        C536   1.290       .  A
O515       Eu525   2.454       .  S
O516        C531   1.292       .  A
O516       Eu522   2.457       .  S
O517        C534   1.293       .  A
O517       Eu523   2.470       .  S
O518        C533   1.295       .  A
O518       Eu523   2.479       .  S
O519        C532   1.289       .  A
O519       Eu522   2.444       .  S
O520        C529   1.289       .  A
O520       Eu526   2.448       .  S
O521        C530   1.291       .  A
O521       Eu526   2.459       .  S
Eu522       O540   2.360       .  S
Eu522       O528   2.342       .  S
Eu523       O527   2.349       .  S
Eu523       O538   2.357       .  S
Eu524       O538   2.356       .  S
Eu524       O528   2.345       .  S
Eu525       O527   2.348       .  S
Eu525       O540   2.360       .  S
Eu526       O527   2.345       .  S
Eu526       O538   2.356       .  S
Eu526       O540   2.357       .  S
Eu526       O528   2.343       .  S
C529       C2290   1.484       .  S
C530       C1522   1.487       .  S
C531       C1642   1.496       .  S
C532        C701   1.473       .  S
C533       C1661   1.490       .  S
C534        C941   1.499       .  S
C535       C2098   1.478       .  S
C536       C1090   1.498       .  S
H537        O538   0.966       .  S
H539        O540   0.966       .  S
O541        C552   1.289       .  A
O541       Eu577   2.447       .  S
O542        C553   1.294       .  A
O542       Eu576   2.478       .  S
O543        C554   1.293       .  A
O543       Eu549   2.468       .  S
O544        C555   1.294       .  A
O544       Eu549   2.470       .  S
O545        C555   1.289       .  A
O545       Eu579   2.448       .  S
O546        C554   1.292       .  A
O546       Eu578   2.465       .  S
O547        C553   1.291       .  A
O547       Eu549   2.454       .  S
O548        C552   1.292       .  A
O548       Eu549   2.462       .  S
Eu549       O559   2.357       .  S
Eu549       O551   2.350       .  S
Eu549       O550   2.354       .  S
Eu549       O557   2.363       .  S
O550       Eu579   2.354       .  S
O550       Eu576   2.359       .  S
O551       Eu577   2.351       .  S
O551       Eu578   2.349       .  S
C552       C2026   1.476       .  S
C553       C1258   1.484       .  S
C554       C1445   1.490       .  S
C555        C917   1.497       .  S
H556        O557   0.966       .  S
O557       Eu578   2.354       .  S
O557       Eu576   2.358       .  S
H558        O559   0.965       .  S
O559       Eu577   2.350       .  S
O559       Eu579   2.348       .  S
O560        C583   1.294       .  A
O560       Eu576   2.475       .  S
O561        C584   1.289       .  A
O561       Eu577   2.447       .  S
O562        C585   1.291       .  A
O562       Eu578   2.456       .  S
O563        C586   1.290       .  A
O563       Eu579   2.446       .  S
O564        C587   1.291       .  A
O564       Eu579   2.461       .  S
O565        C588   1.290       .  A
O565       Eu578   2.447       .  S
O566        C589   1.292       .  A
O566       Eu580   2.465       .  S
O567        C590   1.295       .  A
O567       Eu580   2.479       .  S
O568        C589   1.291       .  A
O568       Eu578   2.458       .  S
O569        C590   1.289       .  A
O569       Eu579   2.450       .  S
O570        C585   1.293       .  A
O570       Eu576   2.464       .  S
O571        C588   1.292       .  A
O571       Eu577   2.465       .  S
O572        C587   1.290       .  A
O572       Eu577   2.453       .  S
O573        C586   1.291       .  A
O573       Eu576   2.456       .  S
O574        C583   1.289       .  A
O574       Eu580   2.442       .  S
O575        C584   1.288       .  A
O575       Eu580   2.440       .  S
Eu576       O594   2.352       .  S
Eu576       O582   2.353       .  S
Eu577       O581   2.350       .  S
Eu577       O592   2.347       .  S
Eu578       O592   2.355       .  S
Eu578       O582   2.350       .  S
Eu579       O581   2.344       .  S
Eu579       O594   2.349       .  S
Eu580       O581   2.347       .  S
Eu580       O592   2.356       .  S
Eu580       O594   2.346       .  S
Eu580       O582   2.355       .  S
C583       C1930   1.481       .  S
C584       C1306   1.462       .  S
C585       C1829   1.489       .  S
C586       C1210   1.476       .  S
C587       C1882   1.483       .  S
C588        C754   1.481       .  S
C589        C850   1.488       .  S
C590       C1354   1.496       .  S
H591        O592   0.965       .  S
H593        O594   0.965       .  S
O595        C606   1.295       .  A
O595       Eu631   2.477       .  S
O596        C607   1.291       .  A
O596       Eu630   2.454       .  S
O597        C608   1.292       .  A
O597       Eu603   2.462       .  S
O598        C609   1.292       .  A
O598       Eu603   2.464       .  S
O599        C609   1.292       .  A
O599       Eu633   2.466       .  S
O600        C608   1.290       .  A
O600       Eu632   2.451       .  S
O601        C607   1.289       .  A
O601       Eu603   2.445       .  S
O602        C606   1.289       .  A
O602       Eu603   2.453       .  S
Eu603       O613   2.354       .  S
Eu603       O605   2.352       .  S
Eu603       O604   2.345       .  S
Eu603       O611   2.356       .  S
O604       Eu633   2.346       .  S
O604       Eu630   2.350       .  S
O605       Eu631   2.355       .  S
O605       Eu632   2.362       .  S
C606       C2314   1.502       .  S
C607       C1546   1.477       .  S
C608       C1013   1.474       .  S
C609       C1690   1.488       .  S
H610        O611   0.966       .  S
O611       Eu632   2.352       .  S
O611       Eu630   2.348       .  S
H612        O613   0.966       .  S
O613       Eu631   2.348       .  S
O613       Eu633   2.354       .  S
O614        C637   1.291       .  A
O614       Eu630   2.457       .  S
O615        C638   1.291   1_655  A
O615       Eu631   2.458   1_545  S
O616        C639   1.292       .  A
O616       Eu632   2.464       .  S
O617        C640   1.290       .  A
O617       Eu633   2.455       .  S
O618        C641   1.291       .  A
O618       Eu633   2.456       .  S
O619        C642   1.291       .  A
O619       Eu632   2.456   1_545  S
O620        C643   1.293       .  A
O620       Eu634   2.469   1_545  S
O621        C644   1.292       .  A
O621       Eu634   2.456   1_455  S
O622        C643   1.291       .  A
O622       Eu632   2.460   1_545  S
O623        C644   1.291   1_655  A
O623       Eu633   2.456       .  S
O624        C639   1.291       .  A
O624       Eu630   2.459       .  S
O625        C642   1.291       .  A
O625       Eu631   2.455   1_545  S
O626        C641   1.295       .  A
O626       Eu631   2.476       .  S
O627        C640   1.290       .  A
O627       Eu630   2.445       .  S
O628        C637   1.293       .  A
O628       Eu634   2.466       .  S
O629        C638   1.292       .  A
O629       Eu634   2.457   1_445  S
Eu630       O648   2.354       .  S
Eu630       O636   2.348       .  S
Eu631       O635   2.351       .  S
Eu631       O646   2.364       .  S
Eu632       O646   2.352       .  S
Eu632       O636   2.348       .  S
Eu633       O635   2.347       .  S
Eu633       O648   2.360       .  S
Eu634       O635   2.356       .  S
Eu634       O646   2.351       .  S
Eu634       O648   2.357       .  S
Eu634       O636   2.348       .  S
C637       C1954   1.496       .  S
C638       C1570   1.481       .  S
C639       C1157   1.489       .  S
C640       C2146   1.486       .  S
C641       C1061   1.497   1_655  S
C642       C2122   1.484       .  S
C643       C1378   1.487       .  S
C644        C970   1.486       .  S
H645        O646   0.966   1_545  S
H647        O648   0.966       .  S
C649        C650   1.407       .  A
C649        C654   1.403       .  A
C649        C663   1.444   1_655  S
C650        C651   1.399       .  A
C650        C655   1.476       .  S
C651        C652   1.396       .  A
C651        H670   1.085       .  S
C652        C653   1.416       .  A
C652        C664   1.444       .  S
C653        C654   1.410       .  A
C654        H669   1.085       .  S
C655        C656   1.401       .  A
C655        C660   1.408   1_655  A
C656        C657   1.398       .  A
C656        H671   1.085       .  S
C657        C658   1.410       .  A
C657        C661   1.444       .  S
C658        C659   1.405   1_655  A
C659        C660   1.399       .  A
C659        H672   1.085       .  S
C660        C662   1.444       .  S
C661        N665   1.157       .  T
C662        N666   1.157       .  T
C663        N668   1.157       .  T
C664        N667   1.157       .  T
C673        C674   1.414       .  A
C673        C678   1.402       .  A
C673        C687   1.444       .  S
C674        C675   1.405       .  A
C674        C679   1.491       .  S
C675        C676   1.400       .  A
C675        H694   1.085       .  S
C676        C677   1.413       .  A
C676        C688   1.444       .  S
C677        C678   1.405       .  A
C678        H693   1.085       .  S
C679        C680   1.402       .  A
C679        C684   1.411       .  A
C680        C681   1.399       .  A
C680        H695   1.085       .  S
C681        C682   1.421       .  A
C681        C685   1.445       .  S
C682        C683   1.410       .  A
C683        C684   1.402       .  A
C683        H696   1.084       .  S
C684        C686   1.444       .  S
C685        N689   1.158       .  T
C686        N690   1.157       .  T
C687        N692   1.157       .  T
C688        N691   1.157       .  T
C697        C698   1.407       .  A
C697        C702   1.398       .  A
C697        C711   1.444       .  S
C698        C699   1.402       .  A
C698        C703   1.475       .  S
C699        C700   1.398       .  A
C699        H718   1.085       .  S
C700        C701   1.412       .  A
C700        C712   1.445       .  S
C701        C702   1.405       .  A
C702        H717   1.085       .  S
C703        C704   1.402       .  A
C703        C708   1.408       .  A
C704        C705   1.398       .  A
C704        H719   1.085       .  S
C705        C706   1.410       .  A
C705        C709   1.444       .  S
C706        C707   1.403       .  A
C707        C708   1.397       .  A
C707        H720   1.085       .  S
C708        C710   1.444       .  S
C709        N713   1.157       .  T
C710        N714   1.157       .  T
C711        N716   1.157       .  T
C712        N715   1.157       .  T
C721        C722   1.408       .  A
C721        C726   1.404       .  A
C721        C735   1.444       .  S
C722        C723   1.398       .  A
C722        C727   1.482       .  S
C723        C724   1.398       .  A
C723        H742   1.085       .  S
C724        C725   1.421       .  A
C724        C736   1.445       .  S
C725        C726   1.410       .  A
C726        H741   1.084       .  S
C727        C728   1.402       .  A
C727        C732   1.410       .  A
C728        C729   1.400       .  A
C728        H743   1.085       .  S
C729        C730   1.413       .  A
C729        C733   1.444       .  S
C730        C731   1.404       .  A
C731        C732   1.401       .  A
C731        H744   1.085       .  S
C732        C734   1.444       .  S
C733        N737   1.157       .  T
C734        N738   1.157       .  T
C735        N740   1.157       .  T
C736        N739   1.158       .  T
C745        C746   1.410   1_655  A
C745        C750   1.400       .  A
C745        C759   1.444       .  S
C746        C747   1.402       .  A
C746        C751   1.481       .  S
C747        C748   1.400       .  A
C747        H766   1.085       .  S
C748        C749   1.411   1_455  A
C748        C760   1.444       .  S
C749        C750   1.403       .  A
C750        H765   1.085       .  S
C751        C752   1.403       .  A
C751        C756   1.408       .  A
C752        C753   1.403       .  A
C752        H767   1.085       .  S
C753        C754   1.414       .  A
C753        C757   1.444       .  S
C754        C755   1.405       .  A
C755        C756   1.397       .  A
C755        H768   1.085       .  S
C756        C758   1.444       .  S
C757        N761   1.157       .  T
C758        N762   1.157       .  T
C759        N764   1.157       .  T
C760        N763   1.157       .  T
C769        C770   1.410       .  A
C769        C774   1.398       .  A
C769        C783   1.444       .  S
C770        C771   1.404       .  A
C770        C775   1.480       .  S
C771        C772   1.400       .  A
C771        H790   1.085       .  S
C772        C773   1.408       .  A
C772        C784   1.443       .  S
C773        C774   1.401       .  A
C774        H789   1.085       .  S
C775        C776   1.400       .  A
C775        C780   1.408       .  A
C776        C777   1.397       .  A
C776        H791   1.085       .  S
C777        C778   1.415       .  A
C777        C781   1.444       .  S
C778        C779   1.407       .  A
C779        C780   1.401       .  A
C779        H792   1.085       .  S
C780        C782   1.444   1_554  S
C781        N785   1.157       .  T
C782        N786   1.157       .  T
C783        N788   1.157       .  T
C784        N787   1.157   1_655  T
C793        C794   1.407       .  A
C793        C798   1.399       .  A
C793        C807   1.443       .  S
C794        C795   1.402       .  A
C794        C799   1.478       .  S
C795        C796   1.399       .  A
C795        H814   1.085       .  S
C796        C797   1.412       .  A
C796        C808   1.445       .  S
C797        C798   1.405       .  A
C798        H813   1.085       .  S
C799        C800   1.401       .  A
C799        C804   1.409       .  A
C800        C801   1.399       .  A
C800        H815   1.085   1_554  S
C801        C802   1.411       .  A
C801        C805   1.444   1_554  S
C802        C803   1.405       .  A
C803        C804   1.400       .  A
C803        H816   1.085       .  S
C804        C806   1.444       .  S
C805        N809   1.157       .  T
C806        N810   1.157       .  T
C807        N812   1.157   1_655  T
C808        N811   1.157       .  T
C817        C818   1.408       .  A
C817        C822   1.399       .  A
C817        C831   1.443       .  S
C818        C819   1.403       .  A
C818        C823   1.482       .  S
C819        C820   1.403       .  A
C819        H838   1.085       .  S
C820        C821   1.414       .  A
C820        C832   1.444       .  S
C821        C822   1.404       .  A
C822        H837   1.085       .  S
C823        C824   1.401       .  A
C823        C828   1.409       .  A
C824        C825   1.404       .  A
C824        H839   1.085       .  S
C825        C826   1.416       .  A
C825        C829   1.444       .  S
C826        C827   1.407       .  A
C827        C828   1.399       .  A
C827        H840   1.085       .  S
C828        C830   1.444       .  S
C829        N833   1.157       .  T
C830        N834   1.157       .  T
C831        N836   1.157       .  T
C832        N835   1.157       .  T
C841        C842   1.412       .  A
C841        C846   1.405       .  A
C841        C855   1.444       .  S
C842        C843   1.401       .  A
C842        C847   1.483       .  S
C843        C844   1.397       .  A
C843        H862   1.085       .  S
C844        C845   1.410       .  A
C844        C856   1.444       .  S
C845        C846   1.404       .  A
C846        H861   1.084       .  S
C847        C848   1.399       .  A
C847        C852   1.409       .  A
C848        C849   1.399   1_655  A
C848        H863   1.085       .  S
C849        C850   1.418       .  A
C849        C853   1.444       .  S
C850        C851   1.408       .  A
C851        C852   1.403   1_455  A
C851        H864   1.084       .  S
C852        C854   1.444       .  S
C853        N857   1.157       .  T
C854        N858   1.157       .  T
C855        N860   1.157       .  T
C856        N859   1.157       .  T
C865        C866   1.410       .  A
C865        C870   1.400       .  A
C865        C879   1.444       .  S
C866        C867   1.404       .  A
C866        C871   1.489       .  S
C867        C868   1.403       .  A
C867        H886   1.085       .  S
C868        C869   1.415       .  A
C868        C880   1.444       .  S
C869        C870   1.408       .  A
C870        H885   1.085       .  S
C871        C872   1.406       .  A
C871        C876   1.411       .  A
C872        C873   1.405       .  A
C872        H887   1.084       .  S
C873        C874   1.411       .  A
C873        C877   1.443       .  S
C874        C875   1.403       .  A
C875        C876   1.399       .  A
C875        H888   1.085       .  S
C876        C878   1.444       .  S
C877        N881   1.157       .  T
C878        N882   1.157       .  T
C879        N884   1.157       .  T
C880        N883   1.157       .  T
C889        C890   1.407       .  A
C889        C894   1.403       .  A
C889        C903   1.443       .  S
C890        C891   1.401       .  A
C890        C895   1.486       .  S
C891        C892   1.400       .  A
C891        H910   1.085       .  S
C892        C893   1.419       .  A
C892        C904   1.445       .  S
C893        C894   1.411       .  A
C894        H909   1.085       .  S
C895        C896   1.402       .  A
C895        C900   1.409       .  A
C896        C897   1.404       .  A
C896        H911   1.085       .  S
C897        C898   1.417       .  A
C897        C901   1.444       .  S
C898        C899   1.406       .  A
C899        C900   1.401       .  A
C899        H912   1.085       .  S
C900        C902   1.444       .  S
C901        N905   1.157       .  T
C902        N906   1.157       .  T
C903        N908   1.157       .  T
C904        N907   1.158       .  T
C913        C914   1.410       .  A
C913        C918   1.404       .  A
C913        C927   1.444       .  S
C914        C915   1.400       .  A
C914        C919   1.488       .  S
C915        C916   1.399       .  A
C915        H934   1.085       .  S
C916        C917   1.422       .  A
C916        C928   1.445       .  S
C917        C918   1.411       .  A
C918        H933   1.084       .  S
C919        C920   1.402       .  A
C919        C924   1.413       .  A
C920        C921   1.401       .  A
C920        H935   1.085       .  S
C921        C922   1.413       .  A
C921        C925   1.443       .  S
C922        C923   1.405       .  A
C923        C924   1.402       .  A
C923        H936   1.085       .  S
C924        C926   1.444       .  S
C925        N929   1.157       .  T
C926        N930   1.157       .  T
C927        N932   1.157       .  T
C928        N931   1.157       .  T
C937        C938   1.409       .  A
C937        C942   1.401       .  A
C937        C951   1.443       .  S
C938        C939   1.403       .  A
C938        C943   1.493       .  S
C939        C940   1.408       .  A
C939        H958   1.085       .  S
C940        C941   1.421       .  A
C940        C952   1.445       .  S
C941        C942   1.409       .  A
C942        H957   1.084       .  S
C943        C944   1.404       .  A
C943        C948   1.411       .  A
C944        C945   1.407       .  A
C944        H959   1.084       .  S
C945        C946   1.413       .  A
C945        C949   1.443       .  S
C946        C947   1.406       .  A
C947        C948   1.405       .  A
C947        H960   1.085       .  S
C948        C950   1.444       .  S
C949        N953   1.157       .  T
C950        N954   1.157       .  T
C951        N956   1.157       .  T
C952        N955   1.158       .  T
C961        C962   1.409       .  A
C961        C966   1.402       .  A
C961        C975   1.444       .  S
C962        C963   1.399       .  A
C962        C967   1.477       .  S
C963        C964   1.398       .  A
C963        H982   1.085       .  S
C964        C965   1.413       .  A
C964        C976   1.443       .  S
C965        C966   1.405       .  A
C966        H981   1.085       .  S
C967        C968   1.399       .  A
C967        C972   1.405       .  A
C968        C969   1.399       .  A
C968        H983   1.085       .  S
C969        C970   1.418       .  A
C969        C973   1.445       .  S
C970        C971   1.409       .  A
C971        C972   1.400       .  A
C971        H984   1.085       .  S
C972        C974   1.443       .  S
C973        N977   1.157       .  T
C974        N978   1.157   1_565  T
C975        N980   1.157       .  T
C976        N979   1.157       .  T
C985        C986   1.410       .  A
C985        C990   1.403       .  A
C985        C999   1.445       .  S
C986        C987   1.402       .  A
C986        C991   1.493       .  S
C987        C988   1.406       .  A
C987       H1006   1.085       .  S
C988        C989   1.421       .  A
C988       C1000   1.444       .  S
C989        C990   1.412       .  A
C990       H1005   1.084       .  S
C991        C992   1.404       .  A
C991        C996   1.411       .  A
C992        C993   1.406       .  A
C992       H1007   1.085       .  S
C993        C994   1.415       .  A
C993        C997   1.443       .  S
C994        C995   1.407   1_545  A
C995        C996   1.403   1_565  A
C995       H1008   1.085       .  S
C996        C998   1.444       .  S
C997       N1001   1.157       .  T
C998       N1002   1.157   1_545  T
C999       N1004   1.157       .  T
C1000      N1003   1.157       .  T
C1009      C1010   1.409       .  A
C1009      C1014   1.399       .  A
C1009      C1023   1.442       .  S
C1010      C1011   1.402       .  A
C1010      C1015   1.481       .  S
C1011      C1012   1.400       .  A
C1011      H1030   1.085       .  S
C1012      C1013   1.413       .  A
C1012      C1024   1.444       .  S
C1013      C1014   1.403       .  A
C1014      H1029   1.085       .  S
C1015      C1016   1.401       .  A
C1015      C1020   1.409       .  A
C1016      C1017   1.400       .  A
C1016      H1031   1.085   1_565  S
C1017      C1018   1.414       .  A
C1017      C1021   1.444   1_565  S
C1018      C1019   1.406       .  A
C1019      C1020   1.403       .  A
C1019      H1032   1.085       .  S
C1020      C1022   1.444       .  S
C1021      N1025   1.157       .  T
C1022      N1026   1.157       .  T
C1023      N1028   1.157       .  T
C1024      N1027   1.157       .  T
C1033      C1034   1.410       .  A
C1033      C1038   1.403       .  A
C1033      C1047   1.444       .  S
C1034      C1035   1.400       .  A
C1034      C1039   1.480       .  S
C1035      C1036   1.397       .  A
C1035      H1054   1.085       .  S
C1036      C1037   1.411       .  A
C1036      C1048   1.444       .  S
C1037      C1038   1.406       .  A
C1038      H1053   1.085       .  S
C1039      C1040   1.402       .  A
C1039      C1044   1.407       .  A
C1040      C1041   1.401       .  A
C1040      H1055   1.085       .  S
C1041      C1042   1.416       .  A
C1041      C1045   1.445       .  S
C1042      C1043   1.409       .  A
C1043      C1044   1.400       .  A
C1043      H1056   1.085       .  S
C1044      C1046   1.444       .  S
C1045      N1049   1.157       .  T
C1046      N1050   1.157       .  T
C1047      N1052   1.157       .  T
C1048      N1051   1.157       .  T
C1057      C1058   1.410   1_545  A
C1057      C1062   1.405       .  A
C1057      C1071   1.443       .  S
C1058      C1059   1.400       .  A
C1058      C1063   1.490   1_565  S
C1059      C1060   1.402       .  A
C1059      H1078   1.085       .  S
C1060      C1061   1.420       .  A
C1060      C1072   1.444       .  S
C1061      C1062   1.409   1_565  A
C1062      H1077   1.084   1_455  S
C1063      C1064   1.403   1_545  A
C1063      C1068   1.410       .  A
C1064      C1065   1.404       .  A
C1064      H1079   1.085       .  S
C1065      C1066   1.414   1_565  A
C1065      C1069   1.444       .  S
C1066      C1067   1.407       .  A
C1067      C1068   1.405       .  A
C1067      H1080   1.084       .  S
C1068      C1070   1.444       .  S
C1069      N1073   1.157       .  T
C1070      N1074   1.157       .  T
C1071      N1076   1.157       .  T
C1072      N1075   1.157       .  T
C1081      C1082   1.411       .  A
C1081      C1086   1.399       .  A
C1081      C1095   1.444       .  S
C1082      C1083   1.405       .  A
C1082      C1087   1.484       .  S
C1083      C1084   1.400       .  A
C1083      H1102   1.085       .  S
C1084      C1085   1.409       .  A
C1084      C1096   1.443       .  S
C1085      C1086   1.405       .  A
C1086      H1101   1.085       .  S
C1087      C1088   1.399       .  A
C1087      C1092   1.408       .  A
C1088      C1089   1.398       .  A
C1088      H1103   1.086       .  S
C1089      C1090   1.422       .  A
C1089      C1093   1.445       .  S
C1090      C1091   1.412       .  A
C1091      C1092   1.403       .  A
C1091      H1104   1.084       .  S
C1092      C1094   1.444       .  S
C1093      N1097   1.157       .  T
C1094      N1098   1.157       .  T
C1095      N1100   1.157       .  T
C1096      N1099   1.157       .  T
C1105      C1106   1.410       .  A
C1105      C1110   1.404       .  A
C1105      C1119   1.444       .  S
C1106      C1107   1.404       .  A
C1106      C1111   1.491       .  S
C1107      C1108   1.405       .  A
C1107      H1126   1.085       .  S
C1108      C1109   1.413       .  A
C1108      C1120   1.444       .  S
C1109      C1110   1.405       .  A
C1110      H1125   1.085       .  S
C1111      C1112   1.403       .  A
C1111      C1116   1.410       .  A
C1112      C1113   1.406       .  A
C1112      H1127   1.085       .  S
C1113      C1114   1.416       .  A
C1113      C1117   1.445       .  S
C1114      C1115   1.405       .  A
C1115      C1116   1.403       .  A
C1115      H1128   1.085       .  S
C1116      C1118   1.444       .  S
C1117      N1121   1.157       .  T
C1118      N1122   1.157       .  T
C1119      N1124   1.157       .  T
C1120      N1123   1.157       .  T
C1129      C1130   1.407       .  A
C1129      C1134   1.398       .  A
C1129      C1143   1.445       .  S
C1130      C1131   1.400       .  A
C1130      C1135   1.481   1_545  S
C1131      C1132   1.402       .  A
C1131      H1150   1.085       .  S
C1132      C1133   1.418       .  A
C1132      C1144   1.441       .  S
C1133      C1134   1.410       .  A
C1134      H1149   1.085       .  S
C1135      C1136   1.400       .  A
C1135      C1140   1.409       .  A
C1136      C1137   1.400       .  A
C1136      H1151   1.085       .  S
C1137      C1138   1.416       .  A
C1137      C1141   1.444       .  S
C1138      C1139   1.406       .  A
C1139      C1140   1.399       .  A
C1139      H1152   1.085       .  S
C1140      C1142   1.444   1_565  S
C1141      N1145   1.157       .  T
C1142      N1146   1.157       .  T
C1143      N1148   1.157       .  T
C1144      N1147   1.157       .  T
C1153      C1154   1.409       .  A
C1153      C1158   1.401       .  A
C1153      C1167   1.444       .  S
C1154      C1155   1.401       .  A
C1154      C1159   1.485       .  S
C1155      C1156   1.404       .  A
C1155      H1174   1.085       .  S
C1156      C1157   1.418       .  A
C1156      C1168   1.445       .  S
C1157      C1158   1.407       .  A
C1158      H1173   1.085       .  S
C1159      C1160   1.403       .  A
C1159      C1164   1.409       .  A
C1160      C1161   1.404       .  A
C1160      H1175   1.085       .  S
C1161      C1162   1.414       .  A
C1161      C1165   1.445       .  S
C1162      C1163   1.403       .  A
C1163      C1164   1.401       .  A
C1163      H1176   1.085       .  S
C1164      C1166   1.443       .  S
C1165      N1169   1.157       .  T
C1166      N1170   1.157       .  T
C1167      N1172   1.157       .  T
C1168      N1171   1.157       .  T
C1177      C1178   1.410       .  A
C1177      C1182   1.403       .  A
C1177      C1191   1.445       .  S
C1178      C1179   1.403       .  A
C1178      C1183   1.484       .  S
C1179      C1180   1.398       .  A
C1179      H1198   1.085       .  S
C1180      C1181   1.411       .  A
C1180      C1192   1.444       .  S
C1181      C1182   1.406       .  A
C1182      H1197   1.085       .  S
C1183      C1184   1.406       .  A
C1183      C1188   1.412       .  A
C1184      C1185   1.401       .  A
C1184      H1199   1.084       .  S
C1185      C1186   1.408       .  A
C1185      C1189   1.444       .  S
C1186      C1187   1.400       .  A
C1187      C1188   1.396       .  A
C1187      H1200   1.085       .  S
C1188      C1190   1.444       .  S
C1189      N1193   1.157       .  T
C1190      N1194   1.157       .  T
C1191      N1196   1.157       .  T
C1192      N1195   1.157       .  T
C1201      C1202   1.408       .  A
C1201      C1206   1.399       .  A
C1201      C1215   1.445       .  S
C1202      C1203   1.401       .  A
C1202      C1207   1.477       .  S
C1203      C1204   1.401       .  A
C1203      H1222   1.085       .  S
C1204      C1205   1.413       .  A
C1204      C1216   1.444       .  S
C1205      C1206   1.406       .  A
C1206      H1221   1.085       .  S
C1207      C1208   1.401       .  A
C1207      C1212   1.408       .  A
C1208      C1209   1.401       .  A
C1208      H1223   1.085       .  S
C1209      C1210   1.415       .  A
C1209      C1213   1.445       .  S
C1210      C1211   1.404       .  A
C1211      C1212   1.396       .  A
C1211      H1224   1.084       .  S
C1212      C1214   1.444       .  S
C1213      N1217   1.157       .  T
C1214      N1218   1.157       .  T
C1215      N1220   1.157       .  T
C1216      N1219   1.157       .  T
C1225      C1226   1.408       .  A
C1225      C1230   1.401       .  A
C1225      C1239   1.444   1_545  S
C1226      C1227   1.403       .  A
C1226      C1231   1.485       .  S
C1227      C1228   1.404       .  A
C1227      H1246   1.085       .  S
C1228      C1229   1.415       .  A
C1228      C1240   1.444       .  S
C1229      C1230   1.407       .  A
C1230      H1245   1.085       .  S
C1231      C1232   1.403       .  A
C1231      C1236   1.408   1_545  A
C1232      C1233   1.405       .  A
C1232      H1247   1.085       .  S
C1233      C1234   1.416   1_545  A
C1233      C1237   1.444       .  S
C1234      C1235   1.406       .  A
C1235      C1236   1.399       .  A
C1235      H1248   1.085       .  S
C1236      C1238   1.444       .  S
C1237      N1241   1.157       .  T
C1238      N1242   1.157       .  T
C1239      N1244   1.157       .  T
C1240      N1243   1.157       .  T
C1249      C1250   1.410       .  A
C1249      C1254   1.401       .  A
C1249      C1263   1.443       .  S
C1250      C1251   1.402       .  A
C1250      C1255   1.483       .  S
C1251      C1252   1.401       .  A
C1251      H1270   1.085       .  S
C1252      C1253   1.412       .  A
C1252      C1264   1.444       .  S
C1253      C1254   1.404       .  A
C1254      H1269   1.085       .  S
C1255      C1256   1.400       .  A
C1255      C1260   1.409       .  A
C1256      C1257   1.400       .  A
C1256      H1271   1.085       .  S
C1257      C1258   1.415       .  A
C1257      C1261   1.444       .  S
C1258      C1259   1.406       .  A
C1259      C1260   1.405       .  A
C1259      H1272   1.084       .  S
C1260      C1262   1.444       .  S
C1261      N1265   1.157       .  T
C1262      N1266   1.157       .  T
C1263      N1268   1.157       .  T
C1264      N1267   1.157       .  T
C1273      C1274   1.409       .  A
C1273      C1278   1.399       .  A
C1273      C1287   1.445       .  S
C1274      C1275   1.403       .  A
C1274      C1279   1.482       .  S
C1275      C1276   1.404       .  A
C1275      H1294   1.084       .  S
C1276      C1277   1.412       .  A
C1276      C1288   1.443       .  S
C1277      C1278   1.405       .  A
C1278      H1293   1.085       .  S
C1279      C1280   1.402       .  A
C1279      C1284   1.406       .  A
C1280      C1281   1.404       .  A
C1280      H1295   1.085       .  S
C1281      C1282   1.418       .  A
C1281      C1285   1.445       .  S
C1282      C1283   1.407       .  A
C1283      C1284   1.398       .  A
C1283      H1296   1.081       .  S
C1284      C1286   1.443       .  S
C1285      N1289   1.158       .  T
C1286      N1290   1.157       .  T
C1287      N1292   1.157       .  T
C1288      N1291   1.157       .  T
C1297      C1298   1.410       .  A
C1297      C1302   1.396       .  A
C1297      C1311   1.445       .  S
C1298      C1299   1.403       .  A
C1298      C1303   1.479       .  S
C1299      C1300   1.400       .  A
C1299      H1318   1.085       .  S
C1300      C1301   1.412       .  A
C1300      C1312   1.444       .  S
C1301      C1302   1.402       .  A
C1302      H1317   1.085       .  S
C1303      C1304   1.404       .  A
C1303      C1308   1.411   1_655  A
C1304      C1305   1.395   1_655  A
C1304      H1319   1.085       .  S
C1305      C1306   1.407       .  A
C1305      C1309   1.445   1_455  S
C1306      C1307   1.402       .  A
C1307      C1308   1.399       .  A
C1307      H1320   1.085       .  S
C1308      C1310   1.444       .  S
C1309      N1313   1.157       .  T
C1310      N1314   1.157       .  T
C1311      N1316   1.157       .  T
C1312      N1315   1.157       .  T
C1321      C1322   1.410       .  A
C1321      C1326   1.402       .  A
C1321      C1335   1.444       .  S
C1322      C1323   1.400       .  A
C1322      C1327   1.485       .  S
C1323      C1324   1.402       .  A
C1323      H1342   1.085       .  S
C1324      C1325   1.418       .  A
C1324      C1336   1.443       .  S
C1325      C1326   1.406       .  A
C1326      H1341   1.085       .  S
C1327      C1328   1.401       .  A
C1327      C1332   1.408       .  A
C1328      C1329   1.403       .  A
C1328      H1343   1.085       .  S
C1329      C1330   1.419       .  A
C1329      C1333   1.444       .  S
C1330      C1331   1.410       .  A
C1331      C1332   1.401       .  A
C1331      H1344   1.084       .  S
C1332      C1334   1.444       .  S
C1333      N1337   1.157       .  T
C1334      N1338   1.157       .  T
C1335      N1340   1.157       .  T
C1336      N1339   1.157       .  T
C1345      C1346   1.410       .  A
C1345      C1350   1.403       .  A
C1345      C1359   1.444       .  S
C1346      C1347   1.401       .  A
C1346      C1351   1.488       .  S
C1347      C1348   1.403       .  A
C1347      H1366   1.085       .  S
C1348      C1349   1.416       .  A
C1348      C1360   1.444       .  S
C1349      C1350   1.406       .  A
C1350      H1365   1.084       .  S
C1351      C1352   1.400       .  A
C1351      C1356   1.409       .  A
C1352      C1353   1.405       .  A
C1352      H1367   1.085       .  S
C1353      C1354   1.423       .  A
C1353      C1357   1.445       .  S
C1354      C1355   1.407       .  A
C1355      C1356   1.401       .  A
C1355      H1368   1.084       .  S
C1356      C1358   1.444       .  S
C1357      N1361   1.158       .  T
C1358      N1362   1.157       .  T
C1359      N1364   1.157       .  T
C1360      N1363   1.157       .  T
C1369      C1370   1.409   1_455  A
C1369      C1374   1.404       .  A
C1369      C1383   1.444       .  S
C1370      C1371   1.403       .  A
C1370      C1375   1.489       .  S
C1371      C1372   1.406       .  A
C1371      H1390   1.084       .  S
C1372      C1373   1.414   1_655  A
C1372      C1384   1.443       .  S
C1373      C1374   1.407       .  A
C1374      H1389   1.085       .  S
C1375      C1376   1.402       .  A
C1375      C1380   1.411       .  A
C1376      C1377   1.404       .  A
C1376      H1391   1.085       .  S
C1377      C1378   1.416       .  A
C1377      C1381   1.444       .  S
C1378      C1379   1.406       .  A
C1379      C1380   1.402       .  A
C1379      H1392   1.085       .  S
C1380      C1382   1.443   1_655  S
C1381      N1385   1.157       .  T
C1382      N1386   1.157       .  T
C1383      N1388   1.157       .  T
C1384      N1387   1.157       .  T
C1393      C1394   1.408       .  A
C1393      C1398   1.399       .  A
C1393      C1407   1.444       .  S
C1394      C1395   1.402       .  A
C1394      C1399   1.479       .  S
C1395      C1396   1.402       .  A
C1395      H1414   1.085       .  S
C1396      C1397   1.412       .  A
C1396      C1408   1.444       .  S
C1397      C1398   1.404       .  A
C1398      H1413   1.085       .  S
C1399      C1400   1.398       .  A
C1399      C1404   1.408       .  A
C1400      C1401   1.397       .  A
C1400      H1415   1.085       .  S
C1401      C1402   1.417       .  A
C1401      C1405   1.443       .  S
C1402      C1403   1.408       .  A
C1403      C1404   1.403       .  A
C1403      H1416   1.085       .  S
C1404      C1406   1.443       .  S
C1405      N1409   1.157       .  T
C1406      N1410   1.157       .  T
C1407      N1412   1.157       .  T
C1408      N1411   1.157       .  T
C1417      C1418   1.407       .  A
C1417      C1422   1.396       .  A
C1417      C1431   1.444       .  S
C1418      C1419   1.401       .  A
C1418      C1423   1.481       .  S
C1419      C1420   1.404       .  A
C1419      H1438   1.085   1_554  S
C1420      C1421   1.420       .  A
C1420      C1432   1.444   1_554  S
C1421      C1422   1.408       .  A
C1422      H1437   1.084       .  S
C1423      C1424   1.400       .  A
C1423      C1428   1.410       .  A
C1424      C1425   1.400       .  A
C1424      H1439   1.085       .  S
C1425      C1426   1.414       .  A
C1425      C1429   1.444       .  S
C1426      C1427   1.404       .  A
C1427      C1428   1.401       .  A
C1427      H1440   1.085       .  S
C1428      C1430   1.444       .  S
C1429      N1433   1.157   1_565  T
C1430      N1434   1.157       .  T
C1431      N1436   1.157       .  T
C1432      N1435   1.157       .  T
C1441      C1442   1.408       .  A
C1441      C1446   1.405       .  A
C1441      C1455   1.444       .  S
C1442      C1443   1.400       .  A
C1442      C1447   1.485       .  S
C1443      C1444   1.401       .  A
C1443      H1462   1.085       .  S
C1444      C1445   1.416       .  A
C1444      C1456   1.444       .  S
C1445      C1446   1.409       .  A
C1446      H1461   1.084       .  S
C1447      C1448   1.402       .  A
C1447      C1452   1.410       .  A
C1448      C1449   1.402       .  A
C1448      H1463   1.085       .  S
C1449      C1450   1.414       .  A
C1449      C1453   1.444       .  S
C1450      C1451   1.405       .  A
C1451      C1452   1.402       .  A
C1451      H1464   1.085       .  S
C1452      C1454   1.443       .  S
C1453      N1457   1.157       .  T
C1454      N1458   1.157       .  T
C1455      N1460   1.157       .  T
C1456      N1459   1.157       .  T
C1465      C1466   1.411       .  A
C1465      C1470   1.400       .  A
C1465      C1479   1.444       .  S
C1466      C1467   1.403       .  A
C1466      C1471   1.489       .  S
C1467      C1468   1.404       .  A
C1467      H1486   1.085       .  S
C1468      C1469   1.416       .  A
C1468      C1480   1.444   1_545  S
C1469      C1470   1.406       .  A
C1470      H1485   1.085       .  S
C1471      C1472   1.401       .  A
C1471      C1476   1.411       .  A
C1472      C1473   1.404       .  A
C1472      H1487   1.085       .  S
C1473      C1474   1.424       .  A
C1473      C1477   1.446       .  S
C1474      C1475   1.406       .  A
C1475      C1476   1.399       .  A
C1475      H1488   1.084       .  S
C1476      C1478   1.443       .  S
C1477      N1481   1.158       .  T
C1478      N1482   1.157       .  T
C1479      N1484   1.157       .  T
C1480      N1483   1.157       .  T
C1489      C1490   1.409       .  A
C1489      C1494   1.399       .  A
C1489      C1503   1.444   1_554  S
C1490      C1491   1.403       .  A
C1490      C1495   1.484       .  S
C1491      C1492   1.404       .  A
C1491      H1510   1.085       .  S
C1492      C1493   1.414       .  A
C1492      C1504   1.444       .  S
C1493      C1494   1.405       .  A
C1494      H1509   1.085   1_554  S
C1495      C1496   1.403       .  A
C1495      C1500   1.409       .  A
C1496      C1497   1.405       .  A
C1496      H1511   1.085       .  S
C1497      C1498   1.416       .  A
C1497      C1501   1.445       .  S
C1498      C1499   1.406       .  A
C1499      C1500   1.398       .  A
C1499      H1512   1.085       .  S
C1500      C1502   1.444   1_565  S
C1501      N1505   1.158       .  T
C1502      N1506   1.157       .  T
C1503      N1508   1.157       .  T
C1504      N1507   1.157       .  T
C1513      C1514   1.409       .  A
C1513      C1518   1.400       .  A
C1513      C1527   1.444       .  S
C1514      C1515   1.403       .  A
C1514      C1519   1.484       .  S
C1515      C1516   1.404       .  A
C1515      H1534   1.085       .  S
C1516      C1517   1.413       .  A
C1516      C1528   1.444       .  S
C1517      C1518   1.406       .  A
C1518      H1533   1.085       .  S
C1519      C1520   1.402       .  A
C1519      C1524   1.410       .  A
C1520      C1521   1.403       .  A
C1520      H1535   1.085       .  S
C1521      C1522   1.417       .  A
C1521      C1525   1.445       .  S
C1522      C1523   1.407       .  A
C1523      C1524   1.397       .  A
C1523      H1536   1.085       .  S
C1524      C1526   1.444       .  S
C1525      N1529   1.158       .  T
C1526      N1530   1.157       .  T
C1527      N1532   1.157       .  T
C1528      N1531   1.157       .  T
C1537      C1538   1.408       .  A
C1537      C1542   1.399       .  A
C1537      C1551   1.444       .  S
C1538      C1539   1.401       .  A
C1538      C1543   1.475       .  S
C1539      C1540   1.399       .  A
C1539      H1558   1.085       .  S
C1540      C1541   1.411       .  A
C1540      C1552   1.444       .  S
C1541      C1542   1.403       .  A
C1542      H1557   1.085       .  S
C1543      C1544   1.400       .  A
C1543      C1548   1.406       .  A
C1544      C1545   1.397       .  A
C1544      H1559   1.085       .  S
C1545      C1546   1.415       .  A
C1545      C1549   1.445       .  S
C1546      C1547   1.406       .  A
C1547      C1548   1.399       .  A
C1547      H1560   1.085       .  S
C1548      C1550   1.443       .  S
C1549      N1553   1.157       .  T
C1550      N1554   1.157       .  T
C1551      N1556   1.157       .  T
C1552      N1555   1.157       .  T
C1561      C1562   1.409       .  A
C1561      C1566   1.400       .  A
C1561      C1575   1.444       .  S
C1562      C1563   1.399       .  A
C1562      C1567   1.477       .  S
C1563      C1564   1.399       .  A
C1563      H1582   1.085       .  S
C1564      C1565   1.415       .  A
C1564      C1576   1.444       .  S
C1565      C1566   1.405       .  A
C1566      H1581   1.085       .  S
C1567      C1568   1.399       .  A
C1567      C1572   1.407       .  A
C1568      C1569   1.401       .  A
C1568      H1583   1.085       .  S
C1569      C1570   1.416       .  A
C1569      C1573   1.443       .  S
C1570      C1571   1.406       .  A
C1571      C1572   1.398       .  A
C1571      H1584   1.085       .  S
C1572      C1574   1.445       .  S
C1573      N1577   1.157       .  T
C1574      N1578   1.157       .  T
C1575      N1580   1.157       .  T
C1576      N1579   1.157       .  T
C1585      C1586   1.408       .  A
C1585      C1590   1.401       .  A
C1585      C1599   1.445       .  S
C1586      C1587   1.400       .  A
C1586      C1591   1.484       .  S
C1587      C1588   1.404       .  A
C1587      H1606   1.085       .  S
C1588      C1589   1.421       .  A
C1588      C1600   1.444       .  S
C1589      C1590   1.409       .  A
C1590      H1605   1.084       .  S
C1591      C1592   1.401       .  A
C1591      C1596   1.410       .  A
C1592      C1593   1.401       .  A
C1592      H1607   1.085       .  S
C1593      C1594   1.413       .  A
C1593      C1597   1.444       .  S
C1594      C1595   1.405       .  A
C1595      C1596   1.402       .  A
C1595      H1608   1.085       .  S
C1596      C1598   1.444       .  S
C1597      N1601   1.157       .  T
C1598      N1602   1.157       .  T
C1599      N1604   1.157       .  T
C1600      N1603   1.157       .  T
C1609      C1610   1.407       .  A
C1609      C1614   1.396       .  A
C1609      C1623   1.444       .  S
C1610      C1611   1.402       .  A
C1610      C1615   1.478       .  S
C1611      C1612   1.403       .  A
C1611      H1630   1.085       .  S
C1612      C1613   1.415       .  A
C1612      C1624   1.443       .  S
C1613      C1614   1.404       .  A
C1614      H1629   1.085       .  S
C1615      C1616   1.399       .  A
C1615      C1620   1.406       .  A
C1616      C1617   1.399       .  A
C1616      H1631   1.085       .  S
C1617      C1618   1.418       .  A
C1617      C1621   1.442       .  S
C1618      C1619   1.408       .  A
C1619      C1620   1.399       .  A
C1619      H1632   1.085       .  S
C1620      C1622   1.443       .  S
C1621      N1625   1.156       .  T
C1622      N1626   1.157       .  T
C1623      N1628   1.157       .  T
C1624      N1627   1.157       .  T
C1633      C1634   1.411       .  A
C1633      C1638   1.405       .  A
C1633      C1647   1.444       .  S
C1634      C1635   1.402       .  A
C1634      C1639   1.485       .  S
C1635      C1636   1.400       .  A
C1635      H1654   1.085       .  S
C1636      C1637   1.410       .  A
C1636      C1648   1.444       .  S
C1637      C1638   1.406       .  A
C1638      H1653   1.085       .  S
C1639      C1640   1.403       .  A
C1639      C1644   1.407       .  A
C1640      C1641   1.407   1_655  A
C1640      H1655   1.085       .  S
C1641      C1642   1.420       .  A
C1641      C1645   1.444       .  S
C1642      C1643   1.408   1_455  A
C1643      C1644   1.398       .  A
C1643      H1656   1.082   1_655  S
C1644      C1646   1.444       .  S
C1645      N1649   1.158       .  T
C1646      N1650   1.157       .  T
C1647      N1652   1.157       .  T
C1648      N1651   1.157       .  T
C1657      C1658   1.408       .  A
C1657      C1662   1.406       .  A
C1657      C1671   1.444       .  S
C1658      C1659   1.404       .  A
C1658      C1663   1.488       .  S
C1659      C1660   1.404       .  A
C1659      H1678   1.085       .  S
C1660      C1661   1.414       .  A
C1660      C1672   1.444       .  S
C1661      C1662   1.409       .  A
C1662      H1677   1.085       .  S
C1663      C1664   1.404       .  A
C1663      C1668   1.410       .  A
C1664      C1665   1.404       .  A
C1664      H1679   1.084       .  S
C1665      C1666   1.411       .  A
C1665      C1669   1.444       .  S
C1666      C1667   1.404       .  A
C1667      C1668   1.401       .  A
C1667      H1680   1.085       .  S
C1668      C1670   1.443       .  S
C1669      N1673   1.157       .  T
C1670      N1674   1.157       .  T
C1671      N1676   1.157       .  T
C1672      N1675   1.157       .  T
C1681      C1682   1.409       .  A
C1681      C1686   1.401       .  A
C1681      C1695   1.444       .  S
C1682      C1683   1.402       .  A
C1682      C1687   1.485       .  S
C1683      C1684   1.404       .  A
C1683      H1702   1.085       .  S
C1684      C1685   1.414       .  A
C1684      C1696   1.444       .  S
C1685      C1686   1.406       .  A
C1686      H1701   1.085       .  S
C1687      C1688   1.402       .  A
C1687      C1692   1.409       .  A
C1688      C1689   1.405       .  A
C1688      H1703   1.085       .  S
C1689      C1690   1.417       .  A
C1689      C1693   1.444       .  S
C1690      C1691   1.407       .  A
C1691      C1692   1.400       .  A
C1691      H1704   1.085       .  S
C1692      C1694   1.444       .  S
C1693      N1697   1.157       .  T
C1694      N1698   1.157       .  T
C1695      N1700   1.157       .  T
C1696      N1699   1.157       .  T
C1705      C1706   1.409       .  A
C1705      C1710   1.397       .  A
C1705      C1719   1.444       .  S
C1706      C1707   1.403       .  A
C1706      C1711   1.478   1_565  S
C1707      C1708   1.402       .  A
C1707      H1726   1.085       .  S
C1708      C1709   1.409       .  A
C1708      C1720   1.444       .  S
C1709      C1710   1.400       .  A
C1710      H1725   1.085       .  S
C1711      C1712   1.400       .  A
C1711      C1716   1.406       .  A
C1712      C1713   1.398       .  A
C1712      H1727   1.085       .  S
C1713      C1714   1.416       .  A
C1713      C1717   1.444       .  S
C1714      C1715   1.409       .  A
C1715      C1716   1.400       .  A
C1715      H1728   1.085       .  S
C1716      C1718   1.443   1_545  S
C1717      N1721   1.157       .  T
C1718      N1722   1.157       .  T
C1719      N1724   1.157   1_565  T
C1720      N1723   1.157       .  T
C1729      C1730   1.408   1_455  A
C1729      C1734   1.400       .  A
C1729      C1743   1.443   1_455  S
C1730      C1731   1.402   1_655  A
C1730      C1735   1.482       .  S
C1731      C1732   1.403       .  A
C1731      H1750   1.085   1_455  S
C1732      C1733   1.414       .  A
C1732      C1744   1.443       .  S
C1733      C1734   1.404       .  A
C1734      H1749   1.085       .  S
C1735      C1736   1.400   1_655  A
C1735      C1740   1.407       .  A
C1736      C1737   1.401   1_455  A
C1736      H1751   1.085       .  S
C1737      C1738   1.419       .  A
C1737      C1741   1.445   1_655  S
C1738      C1739   1.408       .  A
C1739      C1740   1.401       .  A
C1739      H1752   1.085       .  S
C1740      C1742   1.443       .  S
C1741      N1745   1.158       .  T
C1742      N1746   1.157       .  T
C1743      N1748   1.157       .  T
C1744      N1747   1.157       .  T
C1753      C1754   1.411       .  A
C1753      C1758   1.399       .  A
C1753      C1767   1.444       .  S
C1754      C1755   1.403       .  A
C1754      C1759   1.482       .  S
C1755      C1756   1.399       .  A
C1755      H1774   1.085       .  S
C1756      C1757   1.412       .  A
C1756      C1768   1.444       .  S
C1757      C1758   1.404       .  A
C1758      H1773   1.085       .  S
C1759      C1760   1.402       .  A
C1759      C1764   1.407       .  A
C1760      C1761   1.402       .  A
C1760      H1775   1.085       .  S
C1761      C1762   1.419       .  A
C1761      C1765   1.444       .  S
C1762      C1763   1.410       .  A
C1763      C1764   1.395       .  A
C1763      H1776   1.083       .  S
C1764      C1766   1.445       .  S
C1765      N1769   1.158       .  T
C1766      N1770   1.157       .  T
C1767      N1772   1.157       .  T
C1768      N1771   1.157       .  T
C1777      C1778   1.410       .  A
C1777      C1782   1.402       .  A
C1777      C1791   1.444       .  S
C1778      C1779   1.403       .  A
C1778      C1783   1.491       .  S
C1779      C1780   1.403       .  A
C1779      H1798   1.085       .  S
C1780      C1781   1.419       .  A
C1780      C1792   1.443       .  S
C1781      C1782   1.411       .  A
C1782      H1797   1.084       .  S
C1783      C1784   1.405       .  A
C1783      C1788   1.414       .  A
C1784      C1785   1.401       .  A
C1784      H1799   1.085       .  S
C1785      C1786   1.408       .  A
C1785      C1789   1.443       .  S
C1786      C1787   1.404       .  A
C1787      C1788   1.404       .  A
C1787      H1800   1.085       .  S
C1788      C1790   1.444       .  S
C1789      N1793   1.157       .  T
C1790      N1794   1.157       .  T
C1791      N1796   1.157       .  T
C1792      N1795   1.157       .  T
C1801      C1802   1.409       .  A
C1801      C1806   1.399       .  A
C1801      C1815   1.444       .  S
C1802      C1803   1.405       .  A
C1802      C1807   1.488       .  S
C1803      C1804   1.407       .  A
C1803      H1822   1.084       .  S
C1804      C1805   1.415       .  A
C1804      C1816   1.444       .  S
C1805      C1806   1.405       .  A
C1806      H1821   1.085       .  S
C1807      C1808   1.399       .  A
C1807      C1812   1.408       .  A
C1808      C1809   1.401       .  A
C1808      H1823   1.085       .  S
C1809      C1810   1.422       .  A
C1809      C1813   1.445       .  S
C1810      C1811   1.410       .  A
C1811      C1812   1.406       .  A
C1811      H1824   1.084       .  S
C1812      C1814   1.443       .  S
C1813      N1817   1.157       .  T
C1814      N1818   1.157       .  T
C1815      N1820   1.157       .  T
C1816      N1819   1.157       .  T
C1825      C1826   1.410       .  A
C1825      C1830   1.401       .  A
C1825      C1839   1.444       .  S
C1826      C1827   1.399       .  A
C1826      C1831   1.484       .  S
C1827      C1828   1.402       .  A
C1827      H1846   1.085       .  S
C1828      C1829   1.419       .  A
C1828      C1840   1.444       .  S
C1829      C1830   1.406       .  A
C1830      H1845   1.085       .  S
C1831      C1832   1.401       .  A
C1831      C1836   1.409       .  A
C1832      C1833   1.403       .  A
C1832      H1847   1.085       .  S
C1833      C1834   1.416       .  A
C1833      C1837   1.444       .  S
C1834      C1835   1.406       .  A
C1835      C1836   1.400       .  A
C1835      H1848   1.085       .  S
C1836      C1838   1.444       .  S
C1837      N1841   1.157   1_565  T
C1838      N1842   1.157       .  T
C1839      N1844   1.157       .  T
C1840      N1843   1.157       .  T
C1849      C1850   1.409       .  A
C1849      C1854   1.402       .  A
C1849      C1863   1.444   1_545  S
C1850      C1851   1.401       .  A
C1850      C1855   1.482       .  S
C1851      C1852   1.401       .  A
C1851      H1870   1.085       .  S
C1852      C1853   1.414       .  A
C1852      C1864   1.444       .  S
C1853      C1854   1.405       .  A
C1854      H1869   1.085       .  S
C1855      C1856   1.400       .  A
C1855      C1860   1.407   1_545  A
C1856      C1857   1.401   1_455  A
C1856      H1871   1.085       .  S
C1857      C1858   1.418   1_645  A
C1857      C1861   1.445       .  S
C1858      C1859   1.408       .  A
C1859      C1860   1.403       .  A
C1859      H1872   1.084       .  S
C1860      C1862   1.443       .  S
C1861      N1865   1.157       .  T
C1862      N1866   1.157       .  T
C1863      N1868   1.157       .  T
C1864      N1867   1.157       .  T
C1873      C1874   1.408       .  A
C1873      C1878   1.398       .  A
C1873      C1887   1.444       .  S
C1874      C1875   1.403       .  A
C1874      C1879   1.479       .  S
C1875      C1876   1.402       .  A
C1875      H1894   1.085       .  S
C1876      C1877   1.411       .  A
C1876      C1888   1.443       .  S
C1877      C1878   1.404       .  A
C1878      H1893   1.085       .  S
C1879      C1880   1.400       .  A
C1879      C1884   1.407       .  A
C1880      C1881   1.397       .  A
C1880      H1895   1.085       .  S
C1881      C1882   1.415       .  A
C1881      C1885   1.445       .  S
C1882      C1883   1.408       .  A
C1883      C1884   1.403       .  A
C1883      H1896   1.085       .  S
C1884      C1886   1.444       .  S
C1885      N1889   1.157       .  T
C1886      N1890   1.157       .  T
C1887      N1892   1.157       .  T
C1888      N1891   1.157       .  T
C1897      C1898   1.409       .  A
C1897      C1902   1.397       .  A
C1897      C1911   1.444       .  S
C1898      C1899   1.403       .  A
C1898      C1903   1.479   1_565  S
C1899      C1900   1.403       .  A
C1899      H1918   1.084       .  S
C1900      C1901   1.411       .  A
C1900      C1912   1.444       .  S
C1901      C1902   1.401       .  A
C1902      H1917   1.085       .  S
C1903      C1904   1.397       .  A
C1903      C1908   1.405       .  A
C1904      C1905   1.399       .  A
C1904      H1919   1.085   1_545  S
C1905      C1906   1.425       .  A
C1905      C1909   1.444       .  S
C1906      C1907   1.412       .  A
C1907      C1908   1.402       .  A
C1907      H1920   1.084       .  S
C1908      C1910   1.443       .  S
C1909      N1913   1.157       .  T
C1910      N1914   1.157       .  T
C1911      N1916   1.157       .  T
C1912      N1915   1.157       .  T
C1921      C1922   1.408       .  A
C1921      C1926   1.402       .  A
C1921      C1935   1.444       .  S
C1922      C1923   1.400       .  A
C1922      C1927   1.479       .  S
C1923      C1924   1.400       .  A
C1923      H1942   1.085       .  S
C1924      C1925   1.413       .  A
C1924      C1936   1.443       .  S
C1925      C1926   1.406       .  A
C1926      H1941   1.085       .  S
C1927      C1928   1.401       .  A
C1927      C1932   1.406       .  A
C1928      C1929   1.399       .  A
C1928      H1943   1.085       .  S
C1929      C1930   1.413       .  A
C1929      C1933   1.443       .  S
C1930      C1931   1.408       .  A
C1931      C1932   1.402       .  A
C1931      H1944   1.085       .  S
C1932      C1934   1.444       .  S
C1933      N1937   1.157       .  T
C1934      N1938   1.157       .  T
C1935      N1940   1.157       .  T
C1936      N1939   1.157       .  T
C1945      C1946   1.410       .  A
C1945      C1950   1.400       .  A
C1945      C1959   1.444       .  S
C1946      C1947   1.403   1_655  A
C1946      C1951   1.482       .  S
C1947      C1948   1.403       .  A
C1947      H1966   1.084       .  S
C1948      C1949   1.411   1_455  A
C1948      C1960   1.444       .  S
C1949      C1950   1.404       .  A
C1950      H1965   1.085       .  S
C1951      C1952   1.398       .  A
C1951      C1956   1.407       .  A
C1952      C1953   1.400       .  A
C1952      H1967   1.085       .  S
C1953      C1954   1.421       .  A
C1953      C1957   1.443       .  S
C1954      C1955   1.411       .  A
C1955      C1956   1.403       .  A
C1955      H1968   1.084       .  S
C1956      C1958   1.443   1_655  S
C1957      N1961   1.157       .  T
C1958      N1962   1.157       .  T
C1959      N1964   1.157       .  T
C1960      N1963   1.157       .  T
C1969      C1970   1.408       .  A
C1969      C1974   1.400       .  A
C1969      C1983   1.444       .  S
C1970      C1971   1.400       .  A
C1970      C1975   1.478       .  S
C1971      C1972   1.399       .  A
C1971      H1990   1.085       .  S
C1972      C1973   1.413       .  A
C1972      C1984   1.444       .  S
C1973      C1974   1.406       .  A
C1974      H1989   1.085       .  S
C1975      C1976   1.399       .  A
C1975      C1980   1.406       .  A
C1976      C1977   1.399       .  A
C1976      H1991   1.085       .  S
C1977      C1978   1.419       .  A
C1977      C1981   1.445       .  S
C1978      C1979   1.409       .  A
C1979      C1980   1.401       .  A
C1979      H1992   1.085       .  S
C1980      C1982   1.444       .  S
C1981      N1985   1.157       .  T
C1982      N1986   1.157       .  T
C1983      N1988   1.157       .  T
C1984      N1987   1.157       .  T
C1993      C1994   1.408       .  A
C1993      C1998   1.396       .  A
C1993      C2007   1.445       .  S
C1994      C1995   1.398       .  A
C1994      C1999   1.473       .  S
C1995      C1996   1.398       .  A
C1995      H2014   1.085       .  S
C1996      C1997   1.417       .  A
C1996      C2008   1.444   1_554  S
C1997      C1998   1.405       .  A
C1998      H2013   1.085       .  S
C1999      C2000   1.400       .  A
C1999      C2004   1.406       .  A
C2000      C2001   1.400       .  A
C2000      H2015   1.085       .  S
C2001      C2002   1.415       .  A
C2001      C2005   1.444       .  S
C2002      C2003   1.402       .  A
C2003      C2004   1.393       .  A
C2003      H2016   1.085       .  S
C2004      C2006   1.443       .  S
C2005      N2009   1.157       .  T
C2006      N2010   1.157       .  T
C2007      N2012   1.157       .  T
C2008      N2011   1.157       .  T
C2017      C2018   1.410       .  A
C2017      C2022   1.400       .  A
C2017      C2031   1.444       .  S
C2018      C2019   1.404       .  A
C2018      C2023   1.484       .  S
C2019      C2020   1.403       .  A
C2019      H2038   1.085       .  S
C2020      C2021   1.413       .  A
C2020      C2032   1.444       .  S
C2021      C2022   1.403       .  A
C2022      H2037   1.085       .  S
C2023      C2024   1.402       .  A
C2023      C2028   1.411       .  A
C2024      C2025   1.398       .  A
C2024      H2039   1.085       .  S
C2025      C2026   1.412       .  A
C2025      C2029   1.445       .  S
C2026      C2027   1.404       .  A
C2027      C2028   1.402       .  A
C2027      H2040   1.085       .  S
C2028      C2030   1.443       .  S
C2029      N2033   1.157       .  T
C2030      N2034   1.157       .  T
C2031      N2036   1.157       .  T
C2032      N2035   1.157       .  T
C2041      C2042   1.409       .  A
C2041      C2046   1.400       .  A
C2041      C2055   1.443       .  S
C2042      C2043   1.402       .  A
C2042      C2047   1.482       .  S
C2043      C2044   1.400       .  A
C2043      H2062   1.085       .  S
C2044      C2045   1.414       .  A
C2044      C2056   1.445       .  S
C2045      C2046   1.405       .  A
C2046      H2061   1.085       .  S
C2047      C2048   1.402       .  A
C2047      C2052   1.408       .  A
C2048      C2049   1.401       .  A
C2048      H2063   1.085       .  S
C2049      C2050   1.416       .  A
C2049      C2053   1.444       .  S
C2050      C2051   1.408       .  A
C2051      C2052   1.400       .  A
C2051      H2064   1.085       .  S
C2052      C2054   1.443       .  S
C2053      N2057   1.157       .  T
C2054      N2058   1.157       .  T
C2055      N2060   1.157       .  T
C2056      N2059   1.157   1_556  T
C2065      C2066   1.405       .  A
C2065      C2070   1.397       .  A
C2065      C2079   1.444       .  S
C2066      C2067   1.400       .  A
C2066      C2071   1.473       .  S
C2067      C2068   1.397       .  A
C2067      H2086   1.085       .  S
C2068      C2069   1.415       .  A
C2068      C2080   1.445       .  S
C2069      C2070   1.407       .  A
C2070      H2085   1.085       .  S
C2071      C2072   1.402       .  A
C2071      C2076   1.407       .  A
C2072      C2073   1.399       .  A
C2072      H2087   1.085   1_554  S
C2073      C2074   1.408       .  A
C2073      C2077   1.444   1_554  S
C2074      C2075   1.402       .  A
C2075      C2076   1.396       .  A
C2075      H2088   1.085       .  S
C2076      C2078   1.444       .  S
C2077      N2081   1.157       .  T
C2078      N2082   1.157       .  T
C2079      N2084   1.157       .  T
C2080      N2083   1.157       .  T
C2089      C2090   1.412   1_655  A
C2089      C2094   1.399       .  A
C2089      C2103   1.444       .  S
C2090      C2091   1.403       .  A
C2090      C2095   1.482       .  S
C2091      C2092   1.400       .  A
C2091      H2110   1.085       .  S
C2092      C2093   1.410   1_455  A
C2092      C2104   1.444       .  S
C2093      C2094   1.402       .  A
C2094      H2109   1.085       .  S
C2095      C2096   1.401       .  A
C2095      C2100   1.410       .  A
C2096      C2097   1.398       .  A
C2096      H2111   1.085       .  S
C2097      C2098   1.413       .  A
C2097      C2101   1.442       .  S
C2098      C2099   1.405       .  A
C2099      C2100   1.401       .  A
C2099      H2112   1.085       .  S
C2100      C2102   1.443       .  S
C2101      N2105   1.156       .  T
C2102      N2106   1.157       .  T
C2103      N2108   1.157       .  T
C2104      N2107   1.157       .  T
C2113      C2114   1.409       .  A
C2113      C2118   1.401       .  A
C2113      C2127   1.444       .  S
C2114      C2115   1.400       .  A
C2114      C2119   1.476       .  S
C2115      C2116   1.396       .  A
C2115      H2134   1.085       .  S
C2116      C2117   1.412       .  A
C2116      C2128   1.444       .  S
C2117      C2118   1.405       .  A
C2118      H2133   1.085       .  S
C2119      C2120   1.400       .  A
C2119      C2124   1.406       .  A
C2120      C2121   1.399       .  A
C2120      H2135   1.085       .  S
C2121      C2122   1.418       .  A
C2121      C2125   1.445       .  S
C2122      C2123   1.408       .  A
C2123      C2124   1.399       .  A
C2123      H2136   1.085       .  S
C2124      C2126   1.444       .  S
C2125      N2129   1.158       .  T
C2126      N2130   1.157       .  T
C2127      N2132   1.157       .  T
C2128      N2131   1.157       .  T
C2137      C2138   1.409       .  A
C2137      C2142   1.398       .  A
C2137      C2151   1.442       .  S
C2138      C2139   1.401       .  A
C2138      C2143   1.479       .  S
C2139      C2140   1.400       .  A
C2139      H2158   1.085       .  S
C2140      C2141   1.415       .  A
C2140      C2152   1.445       .  S
C2141      C2142   1.404       .  A
C2142      H2157   1.085       .  S
C2143      C2144   1.401       .  A
C2143      C2148   1.407       .  A
C2144      C2145   1.403       .  A
C2144      H2159   1.085       .  S
C2145      C2146   1.417       .  A
C2145      C2149   1.444       .  S
C2146      C2147   1.405       .  A
C2147      C2148   1.395       .  A
C2147      H2160   1.080       .  S
C2148      C2150   1.445       .  S
C2149      N2153   1.157       .  T
C2150      N2154   1.157       .  T
C2151      N2156   1.157       .  T
C2152      N2155   1.157       .  T
C2161      C2162   1.410       .  A
C2161      C2166   1.402       .  A
C2161      C2175   1.443       .  S
C2162      C2163   1.400       .  A
C2162      C2167   1.483       .  S
C2163      C2164   1.399       .  A
C2163      H2182   1.085       .  S
C2164      C2165   1.416       .  A
C2164      C2176   1.445       .  S
C2165      C2166   1.406       .  A
C2166      H2181   1.085       .  S
C2167      C2168   1.401       .  A
C2167      C2172   1.407       .  A
C2168      C2169   1.400       .  A
C2168      H2183   1.085       .  S
C2169      C2170   1.417       .  A
C2169      C2173   1.444       .  S
C2170      C2171   1.409       .  A
C2171      C2172   1.403       .  A
C2171      H2184   1.084       .  S
C2172      C2174   1.444       .  S
C2173      N2177   1.157       .  T
C2174      N2178   1.157       .  T
C2175      N2180   1.157       .  T
C2176      N2179   1.157       .  T
C2185      C2186   1.406       .  A
C2185      C2190   1.402       .  A
C2185      C2199   1.444       .  S
C2186      C2187   1.400       .  A
C2186      C2191   1.480       .  S
C2187      C2188   1.401       .  A
C2187      H2206   1.085       .  S
C2188      C2189   1.417       .  A
C2188      C2200   1.442       .  S
C2189      C2190   1.410       .  A
C2190      H2205   1.084       .  S
C2191      C2192   1.404       .  A
C2191      C2196   1.408       .  A
C2192      C2193   1.402       .  A
C2192      H2207   1.085       .  S
C2193      C2194   1.409       .  A
C2193      C2197   1.444       .  S
C2194      C2195   1.402       .  A
C2195      C2196   1.397       .  A
C2195      H2208   1.085       .  S
C2196      C2198   1.443       .  S
C2197      N2201   1.157       .  T
C2198      N2202   1.157       .  T
C2199      N2204   1.157       .  T
C2200      N2203   1.157       .  T
C2209      C2210   1.410       .  A
C2209      C2214   1.402       .  A
C2209      C2223   1.444       .  S
C2210      C2211   1.401       .  A
C2210      C2215   1.488       .  S
C2211      C2212   1.404       .  A
C2211      H2230   1.085       .  S
C2212      C2213   1.419       .  A
C2212      C2224   1.444       .  S
C2213      C2214   1.408       .  A
C2214      H2229   1.085       .  S
C2215      C2216   1.403       .  A
C2215      C2220   1.410       .  A
C2216      C2217   1.404       .  A
C2216      H2231   1.085       .  S
C2217      C2218   1.414       .  A
C2217      C2221   1.443       .  S
C2218      C2219   1.407       .  A
C2219      C2220   1.401       .  A
C2219      H2232   1.085       .  S
C2220      C2222   1.444       .  S
C2221      N2225   1.157       .  T
C2222      N2226   1.157       .  T
C2223      N2228   1.157       .  T
C2224      N2227   1.157       .  T
C2233      C2234   1.408       .  A
C2233      C2238   1.400       .  A
C2233      C2247   1.444       .  S
C2234      C2235   1.402       .  A
C2234      C2239   1.487       .  S
C2235      C2236   1.406       .  A
C2235      H2254   1.085       .  S
C2236      C2237   1.420       .  A
C2236      C2248   1.444       .  S
C2237      C2238   1.408       .  A
C2238      H2253   1.085       .  S
C2239      C2240   1.402       .  A
C2239      C2244   1.410       .  A
C2240      C2241   1.404       .  A
C2240      H2255   1.085       .  S
C2241      C2242   1.415       .  A
C2241      C2245   1.444       .  S
C2242      C2243   1.406       .  A
C2243      C2244   1.402       .  A
C2243      H2256   1.085       .  S
C2244      C2246   1.444       .  S
C2245      N2249   1.157       .  T
C2246      N2250   1.157       .  T
C2247      N2252   1.157       .  T
C2248      N2251   1.158       .  T
C2257      C2258   1.407   1_545  A
C2257      C2262   1.396       .  A
C2257      C2271   1.444   1_545  S
C2258      C2259   1.401   1_565  A
C2258      C2263   1.480       .  S
C2259      C2260   1.403       .  A
C2259      H2278   1.085       .  S
C2260      C2261   1.418       .  A
C2260      C2272   1.444       .  S
C2261      C2262   1.407       .  A
C2262      H2277   1.085       .  S
C2263      C2264   1.401       .  A
C2263      C2268   1.410       .  A
C2264      C2265   1.401       .  A
C2264      H2279   1.085       .  S
C2265      C2266   1.415       .  A
C2265      C2269   1.444       .  S
C2266      C2267   1.404       .  A
C2267      C2268   1.399       .  A
C2267      H2280   1.085       .  S
C2268      C2270   1.444       .  S
C2269      N2273   1.157       .  T
C2270      N2274   1.157       .  T
C2271      N2276   1.157       .  T
C2272      N2275   1.157       .  T
C2281      C2282   1.410       .  A
C2281      C2286   1.396       .  A
C2281      C2295   1.443       .  S
C2282      C2283   1.403       .  A
C2282      C2287   1.477       .  S
C2283      C2284   1.398       .  A
C2283      H2302   1.085       .  S
C2284      C2285   1.409       .  A
C2284      C2296   1.444       .  S
C2285      C2286   1.399       .  A
C2286      H2301   1.085       .  S
C2287      C2288   1.400       .  A
C2287      C2292   1.407       .  A
C2288      C2289   1.398   1_655  A
C2288      H2303   1.085       .  S
C2289      C2290   1.418       .  A
C2289      C2293   1.445       .  S
C2290      C2291   1.408       .  A
C2291      C2292   1.398   1_455  A
C2291      H2304   1.085       .  S
C2292      C2294   1.444       .  S
C2293      N2297   1.157       .  T
C2294      N2298   1.157       .  T
C2295      N2300   1.157       .  T
C2296      N2299   1.157       .  T
C2305      C2306   1.412       .  A
C2305      C2310   1.405       .  A
C2305      C2319   1.443   1_545  S
C2306      C2307   1.403       .  A
C2306      C2311   1.490       .  S
C2307      C2308   1.400       .  A
C2307      H2326   1.085       .  S
C2308      C2309   1.414       .  A
C2308      C2320   1.444       .  S
C2309      C2310   1.405       .  A
C2310      H2325   1.085       .  S
C2311      C2312   1.401   1_545  A
C2311      C2316   1.409       .  A
C2312      C2313   1.406       .  A
C2312      H2327   1.085       .  S
C2313      C2314   1.425       .  A
C2313      C2317   1.445       .  S
C2314      C2315   1.409   1_565  A
C2315      C2316   1.400       .  A
C2315      H2328   1.084       .  S
C2316      C2318   1.444       .  S
C2317      N2321   1.158       .  T
C2318      N2322   1.157       .  T
C2319      N2324   1.157       .  T
C2320      N2323   1.157       .  T
C2329      C2330   1.412       .  A
C2329      C2334   1.400       .  A
C2329      C2343   1.444       .  S
C2330      C2331   1.402       .  A
C2330      C2335   1.480       .  S
C2331      C2332   1.399       .  A
C2331      H2350   1.085       .  S
C2332      C2333   1.409       .  A
C2332      C2344   1.444   1_565  S
C2333      C2334   1.401       .  A
C2334      H2349   1.085       .  S
C2335      C2336   1.399       .  A
C2335      C2340   1.408       .  A
C2336      C2337   1.398       .  A
C2336      H2351   1.085       .  S
C2337      C2338   1.420       .  A
C2337      C2341   1.445       .  S
C2338      C2339   1.408       .  A
C2339      C2340   1.401       .  A
C2339      H2352   1.084       .  S
C2340      C2342   1.443       .  S
C2341      N2345   1.158       .  T
C2342      N2346   1.157       .  T
C2343      N2348   1.157       .  T
C2344      N2347   1.157       .  T
C2353      C2354   1.409       .  A
C2353      C2358   1.402       .  A
C2353      C2367   1.444       .  S
C2354      C2355   1.402       .  A
C2354      C2359   1.489       .  S
C2355      C2356   1.407       .  A
C2355      H2374   1.085       .  S
C2356      C2357   1.420       .  A
C2356      C2368   1.444       .  S
C2357      C2358   1.408       .  A
C2358      H2373   1.085       .  S
C2359      C2360   1.403       .  A
C2359      C2364   1.411       .  A
C2360      C2361   1.404       .  A
C2360      H2375   1.085       .  S
C2361      C2362   1.412       .  A
C2361      C2365   1.443       .  S
C2362      C2363   1.405       .  A
C2363      C2364   1.404       .  A
C2363      H2376   1.085       .  S
C2364      C2366   1.443       .  S
C2365      N2369   1.157       .  T
C2366      N2370   1.157       .  T
C2367      N2372   1.157       .  T
C2368      N2371   1.157       .  T
